192
Lattice="25.42709 0.0 0.0 0.0 25.42709 0.0 0.0 0.0 25.42709" Properties=species:S:1:pos:R:3:force:R:3 TotEnergy=-1103.59648 cutoff=-1.0 nneightol=1.2 pbc="T T T"
O       16.22850000       3.28626000      11.48190000      -0.00013423      -0.00263892      -0.00106561
H       14.55380000       3.07810000      10.81610000      -0.00044839       0.00017103       0.00254256
H       16.20490000       2.41963000      13.07900000       0.00259600       0.00124698       0.00034793
O        2.55436000       2.23722000       6.27300000      -0.00085521       0.00153095       0.00030386
H        2.91743000       2.24561000       8.05087000      -0.00189026      -0.00381354       0.00053510
H        3.99238000       3.05863000       5.51830000       0.00025161       0.00082048      -0.00184418
O       17.64100000      19.18320000      22.21600000       0.00136660      -0.00114194       0.00271305
H       17.92870000      19.11120000      20.43320000       0.00285863       0.00106112      -0.00462403
H       16.77480000      20.76490000      22.40840000      -0.00464664      -0.00221454      -0.00055180
O       19.76640000      15.25260000       0.30620000      -0.00088107      -0.00229650      -0.00222615
H       18.41820000      14.60010000       1.34499000       0.00042589       0.00191942       0.00390310
H       19.14220000      16.75160000      24.90760000      -0.00128116       0.00369042       0.00140937
O       22.79370000       4.14179000       3.66510000      -0.00043173      -0.00039766      -0.00385998
H       21.95700000       2.55591000       3.99119000      -0.00571311       0.00261264       0.00005427
H       23.87950000       4.30557000       5.09646000       0.00840015       0.00139286       0.00584938
O       22.60720000      24.75610000      24.51290000       0.00155096       0.00177764      -0.00020694
H       21.73150000       0.90062200      24.68770900      -0.00135545       0.00184932       0.00313337
H       23.67760000      25.07180200      23.07820000       0.00305439      -0.00208117      -0.00607673
O        3.70631000      13.79750000      14.75550000      -0.00067547       0.00317516      -0.00434826
H        3.73102000      15.61290000      14.78770000      -0.00308649      -0.00158999       0.00155829
H        2.07858000      13.34160000      14.06710000       0.00496819       0.00926788       0.00184493
O       20.12370000       8.41749000       1.39471000      -0.00392686       0.00242817       0.00104382
H       21.61350000       9.19102000       0.69950300       0.00067401       0.00300763      -0.00796122
H       20.82520000       7.07814000       2.41523000      -0.00058568      -0.00880436       0.00109265
O       25.14390000       7.91746000      10.42530000       0.00200465       0.00816326       0.00323558
H       23.54630000       8.12495000      11.28440000       0.00093161      -0.00303909       0.00171365
H       25.04840000       9.15854000       9.07627000       0.00417641      -0.00203213      -0.00061186
O       15.61170000      22.95770000       2.29773000      -0.00335849      -0.00183217      -0.00091423
H       16.71080000      23.81050000       3.44431000       0.00171388       0.00801472       0.01133290
H       16.70530000      22.62380000       0.91521100       0.00284613      -0.00344677      -0.00846842
O        9.68805000      19.16970000      16.24050000      -0.00350039       0.00198665       0.00307226
H       10.65630000      17.71970000      15.75930000       0.00024915      -0.00127596       0.00028522
H       10.01080000      20.39490000      14.95040000       0.00274164      -0.00040998      -0.00381342
O       10.05270000       7.04527000      11.72860000      -0.00224013      -0.00109912       0.00487603
H       11.62650000       7.27635000      10.85450000       0.00386159       0.00256180      -0.00249288
H        8.77208000       7.19175000      10.46920000      -0.00096874      -0.00105600      -0.00496506
O       12.52750000      20.72130000      11.12290000      -0.00296272      -0.00150395       0.00107588
H       12.38510000      20.59110000       9.29242000       0.00007271      -0.00309716      -0.00011983
H       13.88400000      21.87910000      11.35020000       0.00392612       0.00890624       0.00243894
O        4.21866000       8.38798000      18.24330000       0.00384887      -0.04128230       0.00833108
H        4.93776000       8.54386000      19.92050000      -0.00171516       0.03274710      -0.00787589
H        4.54478000       6.55970000      18.15310000      -0.01503860       0.01385440      -0.01871100
O       11.89210000      20.21430000       5.97448000       0.00294334       0.00104808       0.00242077
H       10.94820000      21.79770000       5.86239000      -0.00375561      -0.00257355      -0.00078121
H       12.59450000      19.95080000       4.31974000       0.00418103       0.00196421       0.00150170
O       15.93880000       6.03464000      18.43920000      -0.00084663      -0.00194866       0.00354291
H       17.13710000       4.71788000      17.96380000      -0.00457159       0.00315905       0.00101077
H       16.70090000       7.59308000      17.81910000      -0.00203662       0.00141148       0.00596433
O       24.19370000      15.04190000      11.79090000      -0.00092337       0.00000578       0.00039168
H       23.08530000      16.34850000      11.17770000      -0.00001222       0.00017272      -0.00378587
H       23.73610000      14.95470000      13.55630000      -0.00065592       0.00360177       0.00146894
O       23.39430000       5.39823000      17.97230000       0.00254244      -0.00861410       0.00257183
H        3.97416000       9.38197000      15.80840000       0.03275610      -0.01088550      -0.01499020
H       23.44860000       4.97246000      16.21880000       0.00011578       0.00014139      -0.00062344
O       23.75490000      15.66280000       4.11267000       0.00530605      -0.00534240       0.00298238
H       22.46200000      15.46150000       2.84230000      -0.00134372       0.00464127      -0.00384690
H       24.27960000      17.40300000       4.18310000      -0.00085244       0.00173848      -0.00101032
O        4.68432000      18.98230000      19.33280000       0.00126420      -0.00405826      -0.00189032
H        3.63772000      20.38320000      19.85800000       0.00223164      -0.00098988      -0.00540281
H        6.00906000      19.61190000      18.26090000      -0.00108593       0.00222961       0.00398066
O       12.23680000      21.42280000      21.78170000       0.00329066      -0.00807166       0.01146970
H       12.54170000      23.18160000      22.03130000      -0.00121437       0.01201070       0.00132818
H       11.92280000      21.23630000      20.02600000      -0.00254433       0.00061629      -0.01127600
O        8.99792000      16.33160000       7.88691000      -0.00153853      -0.00129795       0.00197186
H        9.56982000      15.13160000       9.11264000       0.00461945       0.00083802       0.00204759
H       10.45860000      17.35920000       7.45621000      -0.00325868       0.00038523      -0.00184661
O        8.89568000      24.36800000       6.68457000       0.00367221       0.00046517      -0.00000756
H        9.61981000       0.00208300       7.96176000      -0.00219822       0.00125671       0.00309843
H        8.72485000      25.38062100       5.17716000      -0.00558634       0.00037437      -0.00693429
O        1.38844000       1.77115000      20.46490000       0.00123205       0.00062386      -0.00119091
H        2.00875000       2.26061000      22.10070000      -0.00678987       0.00652433      -0.00212922
H        0.35746900       3.15213000      19.73420000      -0.00512909       0.00399975       0.00156590
O       10.44160000       6.50674000      17.62320000      -0.00953086       0.00683051       0.00459028
H        9.64364000       5.97544000      16.09690000      -0.00074592       0.00167736      -0.00300467
H       12.18430000       6.12413000      17.39940000       0.01573130      -0.00438014       0.00355676
O        6.91582000       1.92085000      18.41020000      -0.00019120       0.00081908      -0.00111709
H        5.80385000       2.73878000      19.57950000      -0.00449063      -0.00122091       0.00068804
H        6.63284000       0.18050700      18.81850000       0.00029964      -0.00178288      -0.00174903
O        0.00088100       9.96142000      24.04140000      -0.00532837       0.01127790       0.00048604
H        0.90461500       8.42548000      24.45940000       0.00241685      -0.00128857      -0.00158308
H        1.19905000      11.27110000      23.62980000       0.00055593      -0.00688973       0.00690690
O       19.81830000       7.82286000      12.99610000       0.00654722       0.00199639      -0.00622503
H       18.75530000       6.40346000      13.34760000      -0.00119899      -0.00270913       0.00019045
H       20.33860000       8.45514000      14.62160000      -0.00249162      -0.00270407       0.00107039
O       18.53320000       1.89518000      16.64460000       0.00259967      -0.01095700      -0.00350561
H       17.97770000      23.37946000      15.56240000       0.00021753      -0.01134320      -0.01019960
H       20.35730000       1.87433000      16.85260000      -0.00056176       0.01217320       0.00394248
O        5.87367000       6.09869000       4.00773000       0.00046614      -0.00083287      -0.00293514
H        7.48913000       6.59808000       3.33140000       0.00233900      -0.00447034       0.00253505
H        5.22133000       7.65728000       4.67009000      -0.00292023       0.00489172       0.00257390
O        9.40958000      12.58900000      25.17373700      -0.00005685      -0.00222867       0.00170237
H        9.16857000      12.19250000       1.50055000       0.00007031       0.00032524      -0.00291534
H       10.67090000      13.91340000      25.15084800       0.00195254       0.00449537      -0.00007738
O       12.16780000      12.38600000      16.90140000       0.00046839      -0.00030570      -0.00004415
H       10.60140000      12.67590000      17.82490000      -0.00195935       0.00037915      -0.00084829
H       12.46640000      10.62110000      17.19110000      -0.00140312      -0.00338258      -0.00099269
O       13.02570000      16.76310000      24.98587700      -0.00654951      -0.00171926       0.00146287
H       12.09430000      18.24360000      24.49430000      -0.00437192       0.00468140       0.00119126
H       14.37200000      16.81910000      23.78930000       0.00896517      -0.00092347      -0.00409038
O       24.06240000      22.71990000      13.38710000       0.00433820       0.00030854      -0.00116837
H        0.14018300      23.69060000      13.02310000      -0.00143113      -0.00465018      -0.00171015
H       22.80080000      24.01210000      13.26500000       0.00041359       0.00235083       0.00124635
O        3.69105000      14.34010000       0.75697200      -0.00069702       0.00125696      -0.00085463
H        2.59495000      14.24820000       2.19280000      -0.00601953       0.00169121      -0.00017146
H        4.95881000      13.10320000       1.12439000       0.00390550       0.00119840      -0.00189139
O       18.08670000      12.74210000       4.80582000       0.00214621       0.00099284       0.00000070
H       18.90250000      11.17150000       4.40875000       0.00029463      -0.00226045      -0.00457057
H       16.95430000      12.30810000       6.15807000      -0.00171115      -0.00159081       0.00048597
O        5.58461000      11.22270000       5.69084000       0.00025257      -0.00246328       0.00024532
H        7.10697000      11.22240000       6.66382000       0.00066896       0.00523781      -0.00007661
H        4.34623000      12.21100000       6.59130000      -0.00246438      -0.00290427       0.00087440
O       10.56880000       1.46095000      12.32760000       0.00150965      -0.00163114      -0.00090826
H        9.54570000       2.92096000      12.67420000       0.00283082       0.00149915      -0.00139049
H       10.14180000       0.24372800      13.60320000       0.00151395       0.00128739       0.00048970
O       15.24530000       9.51619000       8.74246000       0.00073948       0.00210554       0.00106821
H       16.70910000       8.80105000       9.54214000       0.00076890      -0.00148995       0.00133983
H       14.80690000      10.93550000       9.83033000      -0.00204539      -0.00080102       0.00207638
O        0.33346500      12.19360000       7.42859000       0.00531633       0.00186108      -0.00200545
H       25.15235300      13.20940000       8.81660000       0.00125853       0.00122407       0.00601903
H       25.19319900      13.13200000       5.95806000      -0.00341770      -0.00020937      -0.00029499
O       17.32340000      21.90180000      16.37620000      -0.00377262       0.00652433       0.02880610
H       17.10970000      20.39940000      15.39300000       0.00689612       0.00223810      -0.01661810
H       17.87820000       0.90511000      18.01850000      -0.00130629      -0.00106012       0.00196673
O       16.17840000      17.78620000      13.24850000      -0.00239121      -0.00302949       0.00099445
H       14.52760000      18.44220000      12.76730000       0.00417261       0.00165287      -0.00440873
H       17.11540000      17.72240000      11.69210000       0.00515224      -0.00099135      -0.00117450
O        7.46484000       0.91250600       1.52839000       0.00539921       0.00312578       0.00616155
H        5.96449000       0.05860900       1.00437000      -0.00101873      -0.00755013      -0.00272614
H        8.80802000       0.43998100       0.39098200       0.00031915       0.00469214      -0.00177478
O        4.85903000       9.31088000      13.70850000      -0.02064880      -0.00970007       0.01115100
H        5.82992000      10.83350000      13.40370000      -0.00472371       0.00413842       0.00889378
H        3.65371000       9.13034000      12.30520000      -0.00380935      -0.00197179       0.01229260
O       12.95300000       2.38887000      24.25200000       0.00209271       0.02352410       0.00355909
H       14.36620000       5.94251000      25.13400000       0.00311204      -0.01810920      -0.01232850
H       13.62860000       1.12374000      25.35440000       0.00206532       0.00180533       0.00390331
O       25.28548700      21.76160000      18.76280000       0.00114295      -0.00255445       0.00230667
H       24.98875300      23.28960000      17.82280000       0.00176709      -0.00160078       0.00424986
H       25.30849800      20.48690000      17.48190000      -0.00023847       0.00250851      -0.00470740
O        2.66934000      22.22260000      25.04290000       0.00369689       0.00624714       0.00473171
H        0.99963400      22.77540000       0.06387300      -0.00132991      -0.00330742      -0.00547643
H        2.57044000      20.45520000      24.68510000      -0.00291213      -0.00090370      -0.00055470
O       18.97220000       0.70470800       6.17978000       0.00044610      -0.00036997      -0.00084516
H       20.01640000      24.79390000       6.87954000      -0.00009999      -0.00324502       0.00132756
H       18.47290000       1.70968000       7.60637000      -0.00134096       0.00058632      -0.00068059
O        2.18511000       5.30780000       0.17024500       0.00488100       0.00036400      -0.00111952
H        0.90700500       4.55991000       1.22721000      -0.00072025       0.00009223      -0.00021317
H        3.69950000       5.38909000       1.21800000      -0.00584284      -0.00079879       0.00012826
O       15.25810000       7.26084000      24.05770000       0.00096525      -0.00716516       0.00004743
H       15.46690000       6.35904000      22.42100000       0.00065593       0.00324614      -0.00384117
H       16.91860000       7.74542000      24.76080000       0.00253908      -0.00443814       0.00219778
O       12.12730000       0.39957100      17.94950000       0.00230421       0.00142215      -0.00051611
H       12.51370000       1.35781000      16.46160000       0.00110148       0.00163375       0.00480675
H       11.39400000       1.61388000      19.10970000       0.00225479      -0.00391454      -0.00245148
O        4.73830000      24.87554200      11.66520000      -0.00417943      -0.00105749       0.00147727
H        6.13483000      24.98237500      12.79990000      -0.00084822       0.00076991       0.00089153
H        4.93812000      23.26290000      10.81720000      -0.00043233       0.00066492       0.00061332
O        7.34135000      19.54330000       3.14628000      -0.00198771      -0.00141558       0.00078735
H        6.10464000      18.69370000       2.13894000      -0.00246291      -0.00020815      -0.00365528
H        7.78461000      18.31740000       4.40129000       0.00131921      -0.00087343      -0.00077625
O       24.23430000       2.59871000      12.53460000      -0.00068653      -0.00057130      -0.00237827
H       23.02650000       3.86340000      12.06660000       0.00098454       0.00133838      -0.00158987
H        0.15105300       3.52915000      13.32310000      -0.00207559      -0.00207994      -0.00017893
O        0.64897800      20.84790000       5.46782000      -0.00715681      -0.00291367       0.00065917
H        0.84828900      22.31690000       4.42766000       0.00418921       0.00025096       0.00079962
H        2.23664000      20.60440000       6.32802000       0.00390723       0.00057670       0.00252079
O       21.05590000      12.66950000      21.25130000      -0.00592636       0.00359896      -0.00742089
H       19.96070000      13.58080000      22.39350000       0.00862054      -0.00275191       0.00418409
H       22.55710000      12.29460000      22.19490000      -0.00021306      -0.00626255       0.00122288
O       11.20380000       7.49731000       3.10726000      -0.00208736      -0.00232607      -0.00088300
H       12.23670000       8.88103000       2.56489000      -0.00158259      -0.00033229      -0.00152101
H       11.26250000       6.24171000       1.78646000       0.00122327      -0.00471006      -0.00101187
O       13.55260000      13.40500000      11.86300000      -0.00372713       0.00181135      -0.00268204
H       14.74090000      14.64690000      12.50000000      -0.00117360      -0.00295284      -0.00072098
H       12.69440000      12.82160000      13.37250000       0.00276439      -0.00054654       0.00304631
O       20.10660000      16.86040000       8.42678000       0.00000675      -0.01287130       0.01546520
H       20.91970000      15.48620000       7.53328000      -0.00961259       0.00951976      -0.00404447
H       19.71500000      18.15710000       7.24231000       0.00580017       0.00238793      -0.00759165
O        5.28638000      20.51420000       8.61171000      -0.00360136       0.00460044      -0.00298790
H        6.15670000      21.69570000       7.51253000       0.00394056      -0.00409836       0.00015810
H        6.35452000      19.03840000       8.69830000       0.00112820       0.00075222      -0.00176706
O       21.54920000      21.90830000       7.97364000      -0.00198982       0.00524297      -0.00434879
H       23.31580000      21.57660000       7.62217000       0.00081292       0.00002164      -0.00511314
H       21.34440000      21.48440000       9.71188000       0.00293744      -0.00072658       0.00624326
O       17.88550000      10.60720000      17.59430000      -0.00069139      -0.00048222      -0.00712162
H       19.21430000      10.69950000      18.83110000       0.00474178       0.00532266       0.00715854
H       16.87170000      12.09240000      17.77500000      -0.00152213       0.00116249       0.00027744
O       22.59200000      16.13400000      16.76600000      -0.00250402      -0.00108473       0.00083275
H       21.69400000      14.76050000      17.54400000       0.00138050      -0.00131196       0.00499904
H       22.99970000      17.24070000      18.14380000       0.00010541      -0.00101813      -0.00127156
O        7.56853000      12.95000000      19.46130000       0.00716335       0.00085507       0.00655288
H        8.00953000      13.07110000      21.23550000      -0.00297331       0.00001817      -0.00367689
H        6.77116000      14.52440000      19.04850000      -0.00458634       0.00227515       0.00289767
