192
Lattice="23.81981 0.0 0.0 0.0 23.81981 0.0 0.0 0.0 23.81981" Properties=species:S:1:pos:R:3:force:R:3 TotEnergy=-1102.74353 cutoff=-1.0 nneightol=1.2 pbc="T T T"
O       12.13730000      22.66180000       4.38188000      -0.02336260       0.05021810       0.03980570
H       12.34270000      22.62200000       2.62265000       0.01538950      -0.00938079      -0.03587970
H       11.56550000       0.72312500       4.60142000       0.02472470      -0.04369330       0.00198120
O       23.40900000       4.43961000      14.60750000       0.02493490      -0.03732340      -0.01685050
H       23.50190000       2.67558000      13.82830000      -0.00442189       0.02691660       0.01027510
H       21.65060000       4.69977000      14.54680000      -0.01875500       0.00842204      -0.00312066
O       14.96120000      22.50750000      17.15930000      -0.00758134      -0.00108314      -0.01485100
H       14.92850000      22.00070000      15.38520000       0.00927105       0.00573440       0.01430110
H       14.55270000      20.99050000      18.04880000      -0.00443012      -0.00810363       0.00672669
O       20.77030000      12.43720000       0.33566900      -0.02192860      -0.04487800      -0.00361658
H       20.03570000      10.76040000      23.63218100       0.01007120       0.04109240       0.00661021
H       22.46670000      12.22200000      23.58151700       0.01211870       0.00020100      -0.00431180
O       15.73530000      11.80610000      21.90270000       0.02439210       0.00821548      -0.01940890
H       15.64270000      10.01550000      21.73130000      -0.00734074      -0.00519014       0.00948978
H       14.12720000      12.58160000      21.90190000      -0.02032280      -0.00762248      -0.00497089
O        2.52668000      14.81260000       4.43836000      -0.04114290      -0.00548511       0.02174990
H        2.06007000      13.01660000       4.35283000       0.00643539       0.01316390      -0.00213255
H        1.02938000      15.43430000       5.44453000       0.02685850      -0.00566220      -0.02433160
O       19.37600000      16.57600000      20.70440000       0.01538530       0.07330930      -0.00111475
H       19.65240000      16.35550000      22.47200000      -0.00207676      -0.02601790       0.01634020
H       20.09800000      18.39510000      20.69450000      -0.02152460      -0.04718570      -0.01816130
O        2.12991000       6.09409000       9.19518000       0.01812100      -0.01966410      -0.02297350
H        2.18624000       5.74638000      10.96680000      -0.00670982      -0.00709451      -0.00047916
H        2.91144000       4.61507000       8.30898000      -0.01066020       0.02516910       0.02360380
O        6.97732000      10.18390000       8.59966000      -0.02063850       0.02671260       0.07620600
H        7.07203000      11.90960000       9.77925000      -0.01645800      -0.07277970      -0.05629830
H        5.82847000       8.92918000       9.55336000       0.02162200       0.04112850      -0.02219110
O        9.73613000       6.38770000      20.45350000       0.00710420      -0.02658070       0.01956410
H        8.81837000       6.30743000      22.09450000       0.00051566       0.01126740      -0.03112000
H        9.08472000       7.62006000      19.32050000      -0.00731983       0.00990296       0.00548335
O        4.69278000       8.00151000      14.35780000       0.06009900       0.00182160      -0.00348260
H        4.56288000       6.20504000      14.20890000      -0.00251507      -0.01161270       0.00731342
H        3.09795000       8.79095000      14.75380000      -0.01715400       0.01641110       0.00318499
O       16.01280000      11.51210000       7.15491000      -0.02314260       0.01182830       0.02865270
H       16.15690000      12.10510000       5.43753000      -0.01659580       0.00429111       0.00029577
H       14.33820000      13.65850000       8.69375000      -0.00028616      -0.02524110      -0.02480450
O        7.26911000      19.65690000       1.00430000       0.00803805       0.00160384       0.01852790
H        8.06876000      20.37990000       2.47603000      -0.00185329      -0.00817055      -0.00273161
H        8.18586000      20.34980000      23.42450000      -0.00837438       0.00470636      -0.00790202
O       21.85050000      21.65180000       0.61610100       0.01263970      -0.01225280      -0.00115770
H       23.62960000      21.83570000       1.09906000      -0.01668410       0.00210299       0.00871400
H       21.88700000      21.71580000      22.56820000      -0.01099970       0.00543622       0.00746315
O        9.75796000       1.36627000      18.34980000       0.01675820       0.04227180      -0.00936917
H        9.89426000       3.19765000      18.87940000       0.00001051      -0.02612310      -0.00342529
H       11.19580000       1.07004000      17.21320000      -0.00935236      -0.00389792       0.01885770
O       22.20440000       0.18076900      11.70570000      -0.01386800       0.01252650       0.02558990
H       23.67108500      23.29380000      11.00640000       0.02426550      -0.01879300      -0.01136690
H       21.70230000       1.30493000      10.40320000      -0.00880881       0.00839483      -0.01424460
O        1.50519000      10.80700000      21.70950000       0.01377060       0.00336519      -0.01608600
H        1.25464000      10.40130000      19.94090000      -0.00055394       0.00005490       0.01362070
H        2.81165000      12.10700000      21.68820000      -0.00983380       0.00266369       0.00140749
O       16.99500000       2.99493000      19.91640000       0.19556600       0.23509200       0.08186840
H       16.02410000       1.86213000      19.96480000      -0.22127600      -0.25615800       0.06451840
H       16.89410000       2.83632000      18.26140000       0.01890540       0.01932470      -0.13957000
O        7.99239000       7.02063000       4.30262000       0.03540330      -0.04220530      -0.03351140
H        7.37955000       7.98408000       5.56858000      -0.01779840       0.05004050       0.05829980
H        6.71382000       7.18348000       3.07749000      -0.01004810       0.00363669      -0.02862280
O        5.42681000       2.14524000      14.88620000       0.02568640       0.00893853       0.01337050
H        6.95261000       1.89520000      13.82560000      -0.02703920      -0.00534679      -0.00464164
H        6.19850000       2.08582000      16.56070000      -0.00604909       0.00413504      -0.00937208
O       15.50860000      19.51000000      11.71710000       0.05790770      -0.00705589      -0.00451906
H       15.70620000      18.28310000      13.02050000       0.00510570      -0.00423620       0.01081530
H       13.85300000      19.87300000      11.51410000      -0.06455290       0.01226870      -0.00035421
O        0.61977100      11.03150000      14.49070000       0.04319980       0.00688020      -0.02769420
H        0.57503700      11.01940000      12.51680000      -0.01045580       0.00655099       0.03237760
H       23.06380000      10.34490000      15.33290000      -0.03480440      -0.01449420      -0.00264986
O        2.03428000      22.83420000      17.12400000      -0.00054780       0.02266030       0.03660390
H        3.20053000      23.75943200      16.08040000      -0.00094626       0.00262028      -0.01186410
H        1.81534000      21.24560000      16.41770000      -0.00302895      -0.03230850      -0.02532440
O        6.75883000       3.17412000       6.87311000       0.00193513      -0.01492270       0.01554640
H        7.31179000       4.38852000       5.58647000       0.00045871      -0.00107710      -0.00307725
H        5.72866000       1.86686000       6.15714000      -0.00199760       0.00148589      -0.00248213
O       16.84050000       2.94919000      14.98810000      -0.02937220       0.01297740      -0.04611650
H       17.41230000       4.67886000      14.85280000       0.00098662      -0.00453641      -0.00604529
H       15.68820000       2.82240000      13.37910000       0.03186130      -0.00159649       0.04056690
O        5.90875000       2.98398000       0.07034700       0.35806800      -0.06020550      -0.00356477
H        4.45168000       3.23588000       0.11299000      -0.34680500       0.05784110       0.00025831
H        6.42263000       1.61650000      22.79600000      -0.01540890       0.00472755       0.00386491
O        1.21578000       8.91044000       4.25717000       0.02540640       0.01520830       0.08816420
H       23.34850000       8.45891000       5.05897000       0.04598610       0.01838760      -0.01107530
H        2.44100000       9.48036000       5.95109000      -0.06423040      -0.03063700      -0.07090690
O        9.96537000      19.16110000       8.35866000       0.02326070       0.01771890      -0.02637160
H       10.44860000      20.30280000       6.96086000      -0.00320233      -0.01422540       0.01523370
H       10.20520000      20.08050000       9.89848000      -0.00866088       0.00498361       0.00640523
O       18.88340000       8.26917000      13.81950000       0.01242520      -0.01604280       0.00914991
H       17.33660000       8.84302000      13.14480000      -0.01074100       0.00713132      -0.01004400
H       18.58200000       8.22296000      15.61920000       0.00292477       0.00912509       0.00209482
O        0.68024200       5.69977000      19.46100000      -0.02273370      -0.07977310       0.02691100
H       23.44457300       2.93412000      20.84620000       0.02508390       0.07599750      -0.03457570
H        0.81868000       4.87057000      17.79650000      -0.00613021       0.00514602       0.00758636
O       14.47370000       6.55964000      23.46750000       0.05530030      -0.02438910       0.01550040
H       12.96170000       7.16827000      22.84000000      -0.03178150       0.00307134      -0.02857600
H       15.39330000       5.38718000      22.33810000      -0.02235300       0.01605230       0.00349378
O       19.55670000       7.99787000      19.31460000       0.01192170      -0.04901980      -0.03278010
H       21.37350000       7.71776000      18.53930000      -0.05685270      -0.00933502       0.03858530
H       18.60500000       6.26255000      19.33750000       0.04292450       0.05116130       0.00256558
O       18.61380000      16.31340000      14.91000000       0.01691370      -0.01650000      -0.04333420
H       19.58330000      15.84580000      16.48710000      -0.00609980       0.01278410      -0.04736930
H       16.31160000      13.12610000      15.39140000       0.04830580       0.08943590      -0.02684580
O        6.60703000      22.07800000      20.64890000      -0.04400350       0.01949870      -0.03320890
H        7.65180000      23.49920000      19.95430000      -0.01479370      -0.02984710      -0.00508902
H        4.86362000      21.97590000      19.69060000       0.05801650       0.01055170       0.02563250
O        6.80272000       9.24796000      23.76464100       0.00731202      -0.00647389       0.00611052
H        5.59818000       9.35229000      22.44490000      -0.01446360       0.00305714      -0.00565678
H        8.02983000      10.53600000      23.46476700      -0.00478429      -0.00060002       0.00110428
O        6.35389000      15.87920000       8.62781000       0.01621420      -0.03667700       0.04649930
H        7.97758000      16.59990000       8.39439000       0.00528580       0.01663650      -0.00421460
H        5.34463000      16.62570000       7.42668000      -0.02902060       0.01096640      -0.03591540
O       15.18610000      14.48830000       2.56260000       0.06507960       0.03154310      -0.00011981
H       16.94600000      15.44190000       3.17529000      -0.05162820      -0.01747640      -0.02367390
H       15.67110000      14.31800000       0.76741100      -0.00588507      -0.00519094       0.02920390
O       20.88410000      12.11420000       5.79352000      -0.00647819      -0.01135750       0.02153010
H       19.19820000      11.57770000       6.35005000       0.00389595       0.01268060       0.01808830
H       20.86260000      11.39700000       4.16486000       0.01148370       0.00619820      -0.02745340
O       17.19690000       5.92178000       7.03431000      -0.00338101       0.01657170      -0.00805335
H       16.82410000       7.77178000       6.90520000       0.00327291      -0.01848460       0.00277172
H       16.83130000       5.21483000       5.38515000      -0.00852654       0.00790567       0.00766233
O       22.43860000      17.97470000      10.51110000      -0.00935450      -0.00748983       0.00644623
H       21.25230000      19.27810000       9.97774000       0.01555350      -0.00887086       0.00320038
H       19.63030000      16.34700000      12.77530000      -0.00038574       0.00786465       0.08115120
O       14.06970000      17.94550000      20.81720000       0.19787200       0.07875240      -0.10354200
H       15.91600000      17.06920000      20.57990000      -0.06553250       0.01693690       0.01874150
H       12.84750000      17.25780000      21.58080000      -0.11945500      -0.09454490       0.08213240
O       10.06770000      19.40060000      13.56170000      -0.02720940       0.01322100       0.00525112
H        9.26176000      21.03070000      13.93530000       0.01138000      -0.01564990      -0.00417741
H        8.63185000      18.26190000      13.82690000       0.01953930       0.00641348       0.00396534
O        2.47479000      15.33460000      17.28360000       0.00647907       0.01203940      -0.02395190
H        1.41129000      14.08490000      16.40500000       0.01118940       0.01159440       0.00248687
H        2.65600000      16.76330000      16.05440000      -0.00923873      -0.02430440       0.01367510
O        3.44874000      18.87640000      12.86600000      -0.09228840       0.03971760      -0.00920593
H        4.96115000      18.10650000      12.86980000       0.05592930      -0.04034530      -0.02177610
H        2.16337000      18.54930000      11.38540000       0.01857700       0.00004168       0.03607790
O       11.67700000       8.44151000      10.41070000       0.03848850       0.01883210      -0.00954214
H        9.99738000       8.21203000       9.80321000      -0.00683373       0.00983516      -0.01452090
H       12.71050000       9.44202000       9.11619000      -0.02276000      -0.02654460       0.02397970
O        8.02697000      15.14720000      16.56340000      -0.07164080      -0.00365747       0.01660970
H        8.47769000      14.50900000      14.93030000      -0.00853096      -0.01026000       0.00605838
H        6.05831000      14.60570000      16.95020000       0.06439300       0.02163220      -0.02139460
O       10.58930000      13.22930000      21.16070000      -0.02158690      -0.00012657       0.01753590
H        9.06609000      13.89750000      20.39000000       0.01152250      -0.00050329      -0.00788879
H       10.06420000      13.03960000      22.91830000       0.01285240       0.00679376      -0.00727721
O        4.70890000      14.91550000      23.13590000       0.00706331       0.00559269      -0.01294300
H        3.61696000      14.87010000       0.78307700       0.00527651       0.01070170       0.00368874
H        4.91075000      16.65700000      22.56490000      -0.00797069      -0.01740530       0.01181610
O        9.51340000      10.25920000      15.41020000       0.01148140      -0.01473840      -0.04638980
H       10.42450000      10.02800000      13.76480000      -0.01753860      -0.01397520       0.01369940
H        7.38090000       8.97235000      14.87430000       0.01278590       0.03068280       0.01225950
O        0.25275700       4.03455000       1.40674000      -0.00742373      -0.01868090       0.03508300
H       23.52077000       5.42992000       0.43979500      -0.00343435       0.01722640      -0.00114822
H       23.27440000       4.09837000       3.14378000       0.01424030      -0.00346190      -0.04240770
O        8.43798000       0.63407600      11.10460000       0.00803140       0.02905340      -0.03673170
H        8.24810000       1.62258000       9.36150000      -0.00191320      -0.02151900       0.04493990
H        9.99763000       1.27143000      11.81530000       0.00218438      -0.00473651      -0.01390750
O       13.62960000       2.91390000      10.81800000       0.00723816      -0.01751900      -0.00964657
H       12.76180000       4.44153000      11.16290000      -0.00182865       0.02093340      -0.00617293
H       14.42260000       3.12003000       9.15655000      -0.00366378       0.00417111       0.01401960
O       15.20500000      22.38800000      23.71940300       0.00080503      -0.01856120      -0.00766380
H       15.18320000      20.66740000      22.90550000       0.00146597       0.02608710       0.01603930
H       16.59690000      22.49200000       1.08779000      -0.00506786      -0.00832781      -0.00860743
O        1.23548000      12.16920000       9.77429000      -0.03667900      -0.08536650      -0.02145220
H       23.53584000      12.47090000       8.78862000      -0.00040239      -0.00166854      -0.00094026
H        1.86065000      13.68870000      10.13710000       0.03085540       0.08517280       0.01755260
O       21.62850000       3.18354000       6.82048000      -0.07931740      -0.17156400      -0.04076000
H       20.07700000       3.96313000       6.75009000      -0.05098080       0.01739500       0.00249716
H       22.59770000       4.39085000       7.07784000       0.13780200       0.15797500       0.04430530
O       10.03040000      15.28110000       2.75420000      -0.00115304      -0.02581270       0.03424940
H        9.14544000      15.82010000       1.31286000      -0.00067562       0.02286730      -0.00884330
H       11.73320000      15.86190000       3.06975000       0.00066868      -0.00207724      -0.02316530
O       12.98760000       4.21870000       4.06727000       0.00552906      -0.02730540      -0.02481580
H       12.01370000       5.68974000       4.36165000      -0.00957769       0.01207410      -0.00028427
H       13.24110000       4.17708000       2.20328000      -0.00015250       0.00991554       0.02813760
O       12.48990000      14.52590000       9.38037000       0.02088230       0.00824406       0.00638587
H       12.61340000      16.40470000       9.61001000      -0.00885971      -0.02293930      -0.01455090
H       11.06240000      13.97550000       8.33494000       0.01403810       0.01102980      -0.00067939
O       17.78480000      21.83270000       6.74173000      -0.09636790       0.00282655      -0.02554770
H       15.08410000      21.92220000       5.53323000       0.07413860       0.00492143       0.03762830
H       17.27140000      21.75590000       8.52221000       0.00548902      -0.00235799      -0.01589110
O        3.26567000      22.83140000       3.13078000       0.02281000      -0.06846180      -0.04224540
H        3.90973000      21.21390000       2.12360000      -0.01973880       0.04549010       0.04078680
H        4.32804000       0.14752700       2.20508000      -0.00079501       0.01658130       0.00241594
O       21.05350000      22.70950000      19.48650000      -0.00519705      -0.02531840       0.04631710
H       22.58830000      23.02850000      18.55090000      -0.02046460       0.01232400      -0.02474370
H       19.23640000      23.06570000      19.39780000       0.03448670       0.01105510      -0.02647060
O       18.99570000      17.82690000       3.22086000       0.02403800       0.06735850      -0.01349000
H       20.32510000      19.71140000       2.04148000      -0.03482630      -0.05290740       0.03584120
H       18.28340000      18.61640000       4.80988000       0.02441000      -0.00287661      -0.03157110
O        2.94454000      23.30050000       8.91743000       0.02507510      -0.01021220       0.00698375
H        2.59687000      22.51900000       7.27872000       0.00933734       0.00072945       0.01726150
H        4.39693000      22.48600000       9.83368000      -0.03454210       0.01011260      -0.02638310
O       15.62330000      11.72080000      16.03170000      -0.09997430      -0.08049590      -0.01061990
H       15.74760000      11.55910000      17.79450000       0.00854660       0.00919107       0.03622910
H       12.17960000      12.04350000      15.53500000       0.00212675      -0.02811660       0.01987700
