192
Lattice="24.34312 0.0 0.0 0.0 24.34312 0.0 0.0 0.0 24.34312" Properties=species:S:1:pos:R:3:force:R:3 TotEnergy=-1103.43633 cutoff=-1.0 nneightol=1.2 pbc="T T T"
O       19.86390000       2.54670000      16.72354000       0.01258370      -0.04332020       0.09947210
H       20.51280000       2.98827000      18.59974000      -0.01358330       0.00822373      -0.06115460
H       19.34970000       0.77922500      17.46174000       0.00454845       0.03450370      -0.04042150
O       20.09278000      17.75448000      10.80330000      -0.17006600       0.01814130      -0.02346010
H       21.73098000      17.74888000      10.85580000       0.14094300       0.01965080      -0.00500097
H       19.12358000      19.02708000       9.61899000       0.03932570      -0.03400370       0.03595880
O       13.66410000      21.74836000      21.04330000       0.03959290      -0.02946940      -0.03730400
H       12.44770000      20.70282000      20.09980000      -0.00234991       0.01189950       0.01115690
H       15.30060000      21.22887000      20.11100000      -0.03620580       0.02181060       0.02673490
O       18.41899000      17.46021000      22.17862000       0.00415739      -0.03251050       0.06312620
H       18.73964000      18.39468000      20.79927000       0.00346525       0.03935390      -0.06941510
H       20.03053000      17.70469000      23.02544000      -0.00711278      -0.00710244       0.00974323
O        5.53183000       7.22488000      21.74280000      -0.01441420       0.04377880      -0.00177536
H        6.23540000       8.85648000      20.95590000       0.00340493      -0.04723850       0.00498604
H        6.45736000       5.64158000      21.48520000       0.00804901       0.00667764      -0.00512624
O        2.54719000      17.28170000       7.83637000       0.03371330      -0.01683490      -0.02604070
H        2.86907000      15.40210000       7.71773000      -0.00065220       0.03957950      -0.01024920
H        4.03224000      18.31260000       7.01316000      -0.03808620      -0.02884350       0.02885990
O       14.42798000      22.80770000      12.80950000       0.07247440       0.03153370      -0.04025700
H       15.95868000      22.41560000      11.52490000      -0.05616790       0.01511240       0.03259860
H       14.03298000      21.17750000      13.34450000      -0.02206010      -0.03685830       0.01316880
O       23.23436000       0.13092000      12.03860000      -0.08154330       0.01481560       0.03470770
H       22.49358000      22.69804000      12.03780000       0.02139340       0.04278240       0.00523172
H       21.78002000       1.32882000      12.96770000       0.05898550      -0.05553680      -0.03593450
O        7.97408000      10.82224000      19.00040000       0.05364960      -0.02905740       0.01455820
H        9.30508000       9.37044000      18.50160000      -0.03304600       0.04684070       0.01576220
H        8.89288000      12.00654000      20.22720000      -0.01358320      -0.02116590      -0.03511470
O        7.48436000      23.79494000       1.38592000      -0.00781850       0.07280510       0.01152050
H        9.01095000      23.30934000       0.66432000       0.03874680      -0.02352800      -0.01026380
H        7.89877000       1.40792000       1.31512000      -0.03308460      -0.05067450       0.00684543
O       12.90732000       2.78697000       5.28648000       0.10700900      -0.10650800      -0.00772763
H       11.36582000       3.40955000       5.04733000      -0.09229720       0.02375760      -0.02047450
H       13.13062000       0.88538300       4.43496000      -0.02358460       0.07765080       0.02279290
O       12.96322000      10.47048000       0.74246000      -0.07668990       0.01545410       0.00989983
H       13.10602000      10.81748000      23.28598000       0.00433157       0.00088137       0.01080170
H       10.96612000      10.76178000       1.18396000       0.07542970      -0.01605340      -0.01278620
O       12.81040000      18.06254000       4.66122000       0.00135157      -0.03255980       0.05223560
H       14.32420000      16.91464000       4.88422000      -0.00736950       0.02926800      -0.00909940
H       11.98390000      17.78914000       6.39572000       0.00700782       0.01442920      -0.03937110
O        0.87738000      18.70990000      12.34908000      -0.00224547      -0.07028490       0.06076100
H        1.57648000      17.75480000      10.92758000       0.00447636       0.01396480       0.00453272
H        1.00568000      17.28230000      14.04108000      -0.00491156       0.06733360      -0.06305940
O       21.43918000       4.36903000      21.49836000       0.03060390       0.00749618       0.00154511
H       23.03096000       5.14588000      20.95562000      -0.00885155       0.00128773      -0.01454370
H       21.99119000       3.78842000      23.17776000      -0.02071170      -0.00728300      -0.00174493
O       22.45424000      19.40320000       5.62108000      -0.05528890       0.00725708      -0.04846480
H       23.64674000      18.57260000       6.59558000       0.04174290      -0.00522602       0.02836000
H       22.31814000      21.21860000       5.70528000       0.01698050       0.00269929       0.01636480
O       15.59774000      12.41820000      20.98470000       0.02462380       0.05234730       0.12513100
H       15.28974000      12.53140000      19.34650000      -0.01825620       0.00296607      -0.11057500
H       15.87394000      14.26070000      21.61550000       0.00175231      -0.05839660      -0.01804320
O        8.01412000      10.40276000       2.72962000      -0.01030380      -0.01369590      -0.08039740
H        7.82282000      10.82756000       4.37872000      -0.00700643       0.01617530       0.06788660
H        6.45582000      10.84846000       1.80442000       0.01438270      -0.00776465       0.01587190
O       17.88366000      22.16060000      17.64758000       0.00809691      -0.05376230      -0.01271580
H       16.72336000      22.49900000      16.22518000       0.01210690      -0.00721292       0.01096070
H       18.67836000      20.31430000      17.31498000      -0.02096150       0.05361700      -0.00759942
O        7.29596000       4.37632000       3.37753000       0.07041750       0.04361360      -0.03558230
H        5.78456000       4.17242000       4.14772000      -0.06162830      -0.01318400       0.03507530
H        7.50246000       6.22452000       3.10039000      -0.00283622      -0.02829690       0.00000504
O        9.48058000      17.89700000       9.31622000       0.05494450       0.01333300       0.03462380
H        8.97348000      16.24290000       8.81192000       0.00210084      -0.01305660       0.00891225
H       10.86988000      17.82640000      10.75492000      -0.04987080      -0.00446908      -0.03823930
O       13.91652000       6.49766000      12.61656000      -0.05663810      -0.01639480      -0.01953250
H       13.32792000       4.93152000      11.77336000      -0.02891200       0.02167230       0.01053100
H       15.54574000       5.91183000      12.49246000       0.06968810      -0.00191894       0.00995927
O        7.92296000       2.76152000      21.28818000      -0.00375441      -0.06176770      -0.03575540
H        9.67359000       2.66348000      20.82694000       0.02286010       0.02189070       0.01221800
H        7.64264000       1.08231000      20.28933000      -0.02649830       0.04265070       0.02622100
O       16.95728000       6.57501000      22.04070000       0.03180080      -0.04130640       0.00670019
H       16.61688000       8.22666000      21.55940000      -0.00439497       0.03617980      -0.00660619
H       18.83998000       6.22059000      21.86030000      -0.03348650       0.00363916      -0.00370331
O        2.80879000      12.02196000       6.09888000       0.05530550       0.02542950      -0.10548800
H        1.49648000      11.19536000       6.77198000      -0.06241900      -0.04282600       0.03828640
H        2.62976000      11.55126000       4.11138000       0.01118780       0.01519080       0.07129940
O        9.71312000      11.72838000       7.85813000       0.03718560       0.03340490      -0.02469110
H        8.59075000      10.74848000       8.75149000      -0.03152410      -0.02791250       0.03071940
H       11.42970000      11.39158000       8.48221000      -0.01276850      -0.00037665      -0.00474795
O        9.66122000      19.27960000      18.25970000      -0.01411610       0.01484010      -0.00934440
H        8.14752000      20.34460000      18.17160000       0.00571172       0.00246760       0.00193674
H        9.03332000      17.73510000      18.94420000       0.00703698      -0.00791940       0.00903271
O        2.76008000      10.39668000       0.95716000      -0.00155111       0.01497720      -0.01492930
H        1.94278000      11.77728000      24.33458000      -0.00335056      -0.01019000       0.00584066
H        3.36208000       9.27148000      23.98228000       0.00504398      -0.00971084       0.00627299
O       11.88980000       7.05118000      17.49430000       0.04653740      -0.05580510      -0.02367950
H       12.88420000       6.89388000      15.72820000      -0.03960280      -0.00256725       0.05237720
H       12.37850000       5.33998000      18.41970000      -0.01778100       0.05277120      -0.03226120
O       21.33339000       3.45192000       1.85638000       0.08975360      -0.07016490       0.02367370
H       19.79055000       3.89932000       2.44938000      -0.07794120       0.01503320       0.02430200
H       21.83499000       1.99802000       3.12508000      -0.00435620       0.04675520      -0.03149700
O        4.36578000      16.66370000      20.49899000       0.08857170      -0.00022464      -0.07085550
H        5.89418000      15.57300000      19.80444000      -0.06079120       0.03304030       0.02880930
H        3.38778000      15.65540000      21.48064000      -0.03190630      -0.04512600       0.03984630
O        2.32008000       1.72956000      16.08260000       0.10315400       0.06823490       0.08602670
H        1.05314000       1.21077000      15.15570000      -0.09529220      -0.03168380      -0.06808540
H        2.02288000       3.42937000      16.93570000      -0.00473308      -0.03718380      -0.01487090
O       12.97204000       2.67526000      20.69304000       0.04023090       0.02142910       0.00977049
H       14.09394000       1.12606000      20.46884000      -0.02443520       0.03910950       0.01087480
H       13.87634000       4.23856000      21.46914000      -0.00862886      -0.05482580      -0.02029070
O        4.02762000       1.45266000       6.96412000       0.01865680       0.01064860       0.02957240
H        4.87986000       1.79416000       8.64222000      -0.02903530      -0.00186126      -0.02716190
H        4.80289000      24.22318000       6.49512000       0.00073940      -0.00760462      -0.00324231
O       17.40184000      11.63098000       4.35108000       0.05131890       0.01170280       0.09479220
H       16.45034000      11.59698000       2.96733000      -0.04729380      -0.01244010      -0.08600400
H       19.00734000      10.79808000       4.21435000      -0.00549455      -0.00518967      -0.01633140
O       20.85870000       9.86758000      12.31650000      -0.03491270       0.06163330      -0.04125580
H       19.89760000      11.51738000      12.66800000       0.01356900      -0.04396180       0.00444634
H       20.99380000      10.16828000      10.42290000       0.00981625      -0.02340950       0.03771550
O       10.91792000       2.15012000      11.00270000       0.06120120       0.00140125       0.06997680
H       11.04432000       1.40422000       9.43050000       0.00373157      -0.01622610      -0.04043770
H       12.59142000       1.42132000      11.93220000      -0.06661110       0.00787682      -0.02860100
O        1.37154000       6.22477000      18.91730000      -0.02704310      -0.00392225      -0.02216870
H        0.98904000       7.69200000      17.91240000      -0.00819870       0.00132255      -0.00532786
H        2.74564000       6.78881000      19.89860000       0.03430680       0.00101326       0.02397360
O        5.39852000       8.76492000      10.60318000      -0.01777120      -0.02018950      -0.01626630
H        5.51092000       6.92652000      10.91098000      -0.00295247       0.01322210       0.00428084
H        3.81512000       8.90782000       9.64988000       0.01697960       0.00007694       0.00525735
O       17.35960000      16.53600000       5.77908000       0.03199200       0.01068210      -0.00163395
H       18.96540000      17.51870000       5.46908000      -0.02880060      -0.02378060       0.00350752
H       17.67610000      14.71970000       5.49418000       0.00291169       0.01174200      -0.00254229
O        5.50062000      22.77959000      19.22588000      -0.04573420       0.00745936       0.02668260
H        5.02402000      22.51359000      21.15558000       0.00349758      -0.00073172      -0.06850430
H        3.91382000      23.36333300      18.18618000       0.04828640      -0.01149680       0.03635050
O       18.54898000       2.88762000       7.94938000       0.04228470      -0.02848150      -0.00537317
H       18.25418000       3.05706000       9.70128000      -0.00423236       0.01301210       0.02032180
H       17.07318000       3.15160000       7.06518000      -0.03936750       0.01113720      -0.02253690
O       16.86548000      14.15584000      12.00362000       0.08128150       0.07102990       0.08388830
H       18.59697000      15.30344000      11.75152000      -0.07129490      -0.03322730      -0.01624740
H       16.32863000      13.30794000      10.63982000      -0.01884290      -0.03924340      -0.07169600
O        5.26696000       3.46332000      12.08762000       0.02652720       0.00034922      -0.00067587
H        7.13866000       3.28782000      11.85532000      -0.03144030      -0.00488833       0.02059430
H        4.63606000       2.90952000      13.79402000       0.01356040       0.00027021      -0.02520740
O       17.09750000      21.92127000       8.76804000      -0.00701804      -0.01472140      -0.04498330
H       17.96860000      23.58516500       8.33210000      -0.02377340      -0.03063390      -0.01011320
H       15.95380000      21.04997000       7.37163000       0.04296930       0.04245090       0.04229290
O       10.48024000      15.04196000      21.10848000      -0.09571690       0.01403710       0.07681420
H       11.92084000      14.64268000      20.31308000       0.07262960      -0.02266650      -0.01963480
H       10.36174000      14.97394000      23.08428000       0.01364780       0.00469976      -0.04873090
O        4.93423000      11.93172000      14.53835000       0.04990780      -0.02111030       0.08121100
H        6.22622000      10.87932000      15.74732000      -0.04848430       0.05193670      -0.03870080
H        4.80872000      10.78852000      13.20572000       0.00451256      -0.02291000      -0.03934990
O       19.68380000      17.41400000      16.06950000       0.06077520      -0.02200330      -0.05096590
H       19.79780000      17.20140000      14.09440000      -0.01468740       0.02390080       0.06017540
H       21.60320000      16.98060000      16.37050000      -0.05030610       0.01507370       0.00706618
O       12.46220000      18.29040000      14.08042000       0.00808692       0.00150484      -0.02414080
H       13.43490000      16.80000000      14.40732000      -0.00575983      -0.00025540       0.00599677
H       11.20760000      18.65130000      15.35609000      -0.00184602      -0.00727366       0.01294080
O       23.11130000       0.45506000       6.17368000       0.04755590      -0.00932742      -0.02914130
H       22.36320000       1.09296000       7.63008000      -0.01738270       0.01241430       0.02881500
H        0.64198000       0.75926000       6.47738000      -0.02854680      -0.00611657      -0.00413039
O       23.44575000       8.29467000       8.00640000      -0.00510325       0.07339580      -0.06538630
H       23.35807400       6.56962000       8.32284000      -0.00556208      -0.03280910      -0.00861772
H       23.05173000       8.82299000       6.02757000       0.00630978      -0.04535790       0.06459220
O       12.34170000      22.60394000       1.88398000       0.03234510      -0.03733910      -0.02132450
H       12.26390000      20.87154000       2.60768000       0.00039098       0.02318060       0.00192161
H       13.40550000      22.20254000       0.33718000      -0.02164780       0.01626130       0.02176070
O       23.64398700      18.44150000       0.48806000       0.03542230       0.07311790       0.04943640
H        0.79295800      19.71130000       0.06496000      -0.03781580      -0.04487370       0.00601884
H       23.30180000      19.11680000       2.38326000       0.00380677      -0.03323260      -0.05281810
O        9.26248000      15.85648000       1.87961000       0.01987690      -0.03306500       0.03136570
H       10.92258000      16.46198000       2.56672000      -0.02093230       0.00641347      -0.00676604
H        9.06168000      14.40008000       3.10302000      -0.00326506       0.02778850      -0.03260960
O        0.30568000      16.19280000      16.78724000      -0.01637390      -0.07990120      -0.04110780
H        0.48698000      14.22790000      16.33964000      -0.01460100       0.05274300       0.01173460
H        1.49718000      16.35540000      18.07354000       0.03240070       0.01635310       0.02834070
O        4.32922000      20.50388000      24.11047500       0.01783260       0.05900630       0.01819180
H        5.32142000      19.05028000      24.22315600       0.01165980      -0.02904560      -0.00513695
H        5.64612000      21.91998000       0.39885800      -0.03918440      -0.02274550      -0.00928319
O        6.12025000      20.82414000       6.59378000      -0.12003900       0.01622590      -0.13421000
H        7.45166000      20.66564000       7.49068000       0.13231800      -0.02234690       0.09740730
H        6.73018000      20.74964000       4.81008000      -0.01179890       0.00469661       0.02887290
O       22.05144000       8.63928000       2.79063000      -0.10440200      -0.05260450       0.04217010
H       23.44965100       8.73128000       1.90310000       0.10200000       0.02274830      -0.05901640
H       21.48264000       6.87258000       2.19103000       0.00919607       0.03876410       0.02746060
O       14.73483000      10.19692000       8.76388000      -0.00538087      -0.00071370      -0.00864616
H       14.12262000       8.55442000       9.24955000       0.00319817       0.00198325       0.00751179
H       15.10305000      10.09502000       6.97417000       0.00582052       0.00271692       0.00258821
O       18.54595000       4.79489000      12.48650000      -0.02067140       0.05209300      -0.16306100
H       18.96261000       6.56783000      12.36380000       0.01095020       0.00292454      -0.00498378
H       18.73133000       4.41572000      14.03280000       0.02316520      -0.05146180       0.17537100
O       23.93810000      13.71122000      23.05277000      -0.01298580      -0.00542435      -0.05135320
H       23.03840000      13.87592000      21.31776000       0.02736580       0.00266794       0.06092270
H       24.03950000      15.31456000      23.97635900      -0.01246130       0.00808677      -0.01110620
O        0.11468000      10.87230000      15.65538000      -0.01060260       0.03847790       0.12057600
H       23.45600000      10.25560000      14.47988000      -0.06794720      -0.03883200      -0.08403880
H        1.72708000      10.99320000      15.13458000       0.08492820       0.00503787      -0.02860500
O       16.79540000       5.03098000       2.71546000       0.00099199       0.00128859       0.00294729
H       15.08990000       4.64338000       3.19046000      -0.00342785      -0.00469057       0.00855420
H       16.71840000       5.25348000       0.91966000      -0.00302669       0.01174780      -0.01069410
O       14.14862000      11.86620000      15.99440000       0.01397890       0.08925300      -0.00312176
H       15.24042000      13.03360000      14.85750000      -0.02113460      -0.05666110       0.01528420
H       14.14222000      10.12280000      15.83720000       0.01139650      -0.02635830      -0.01707700
