192
Lattice="24.44634 0.0 0.0 0.0 24.44634 0.0 0.0 0.0 24.44634" Properties=species:S:1:pos:R:3:force:R:3 TotEnergy=-1103.4002 cutoff=-1.0 nneightol=1.2 pbc="T T T"
O        0.50736000      22.02894000      10.99838000      -0.00333135      -0.04748140       0.02245780
H       23.53160000      20.98773000      11.84848000       0.03215190       0.02712200      -0.01242960
H        2.09936000      21.00031000      11.23168000      -0.03211060       0.01896670      -0.00455830
O        2.73072000       0.97562000       0.46941300       0.01102220      -0.02605860      -0.00660484
H        4.24272000       1.39892000      23.92283100      -0.00966367      -0.00671080       0.00957485
H        2.47562000      23.52816000       0.56791900       0.00409465       0.03194370       0.00086536
O       14.29360000       1.06532000      18.09900000      -0.01753530      -0.00582120       0.05234090
H       13.80620000       2.61566000      19.34270000       0.01870880      -0.04223360      -0.03366840
H       14.67750000      23.90369500      19.07470000      -0.00247605       0.04650330      -0.01140400
O       21.23244000      14.81880000      21.80637000      -0.03848830       0.08746180       0.00375913
H       22.42503000      13.69124000      22.35966000       0.04373520      -0.03254540       0.02611120
H       21.55927000      16.63393000      22.59111000      -0.00773345      -0.04745400      -0.02560710
O        4.12817000      11.24706000      19.44110000      -0.02646120      -0.01700740      -0.03602580
H        3.24987000       9.95706000      18.29560000       0.03079620       0.03157410       0.03685580
H        5.10570000      10.37566000      20.68340000      -0.00242412      -0.01636870       0.00701908
O       16.27132000      11.34370000       6.96805000       0.02673580      -0.00526523       0.06937540
H       15.27586000      12.80160000       7.32216000      -0.00735664       0.01204960      -0.01990940
H       16.21973000      10.52910000       5.43355000      -0.01249140      -0.00868896      -0.05021830
O       19.37756000       4.69296000      14.07060000      -0.00519949      -0.05523400       0.00338239
H       20.74836000       4.09986000      12.74780000      -0.03418160       0.00269693       0.03484980
H       18.56186000       3.12796000      15.04220000       0.03594550       0.04830090      -0.04626720
O        1.50752000      12.10428000       6.09614000       0.05159800      -0.02084180       0.01530590
H        2.97962000      10.88728000       5.26555000      -0.05911620       0.03311160       0.04672720
H        1.67211000      12.37128000       8.10191000       0.01279180      -0.01472710      -0.06831030
O        8.69676000      13.99868000      17.38650000       0.00692028      -0.04361270       0.05475240
H        7.62116000      13.30318000      18.76860000      -0.01473930       0.02716930      -0.02661570
H        9.87536000      12.58808000      17.68310000       0.00659292       0.01678880      -0.02979430
O       10.53290000      20.07328000      23.97758000       0.01634960      -0.01961030       0.02303430
H       12.01310000      19.29898000       0.42674000      -0.00959258       0.01126190      -0.01870990
H        9.29611000      19.01458000       0.38534000      -0.01172970      -0.00100438      -0.00335480
O       12.05244000       5.44667000       8.10914000       0.04412160       0.02312280      -0.02603440
H       13.37194000       6.14212000       9.30448000      -0.03954910      -0.01055140      -0.00367346
H       10.48694000       4.94861000       8.78235000      -0.00931425      -0.00504486       0.03206530
O       14.13494000       4.52796000       0.70182000       0.07062890      -0.00795926       0.00195060
H       13.19504000       3.20196000       1.42012000      -0.03486210      -0.01975490       0.01167870
H       15.85582000       3.58676000       0.80382000      -0.02747200       0.02228510      -0.00901399
O        9.48839000      18.02608000       7.32204000       0.10021100       0.00495134      -0.04433160
H        9.01617000      17.12518000       5.87254000      -0.02239720      -0.01414350      -0.02258030
H        8.24156000      18.21368000       8.43894000      -0.07617630       0.00197080       0.05653280
O        2.91096000      13.58960000      10.99076000      -0.12876100       0.06759480      -0.00951025
H        1.47206000      13.78310000      12.28766000       0.04419350      -0.01399160      -0.02892590
H        4.27546000      12.82980000      11.58806000       0.07525760      -0.05477050       0.04062080
O        3.47673000       3.05096000       5.47796000       0.02278440      -0.02071920       0.00136725
H        4.42127000       2.04194000       6.74276000      -0.01013630       0.00709721      -0.00348440
H        3.71841000       1.99767000       3.96825000      -0.01090570       0.01067880       0.00147075
O       15.00028000       1.13376000       9.08056000       0.02653220       0.00683785      -0.04186880
H       16.64358000       1.04626000       7.97536000      -0.04257080       0.00554970       0.02786410
H       13.90668000       2.41726000       8.26106000       0.01747480      -0.01005760       0.01208330
O       16.50438000      13.04800000      22.78770000       0.01912330      -0.01231870      -0.03812610
H       16.41508000      12.06540000      21.11360000      -0.01947350       0.01556540       0.02903170
H       18.21198000      13.79170000      22.45000000      -0.00767926       0.00050732       0.01494710
O        3.03694000      15.70592000       2.33624000      -0.02871710      -0.02957920       0.00956272
H        2.75924000      14.40742000       3.82684000      -0.00271476       0.03429440      -0.03776720
H        1.82154000      15.17582000       0.99384000       0.02191920      -0.00623034       0.02732890
O       20.57472000      19.90440000      12.92696000       0.04202200      -0.05250480       0.02039510
H       19.11302000      20.86380000      12.83156000      -0.04193250       0.03822530       0.00979561
H       20.43792000      18.67920000      14.33866000       0.00241242       0.02486070      -0.01241040
O       11.19542000      12.09964000       0.56191400      -0.01058340       0.00060976       0.01195300
H       10.20182000      11.01634000      23.94037600      -0.00434306      -0.00551220      -0.00184971
H       12.66122000      12.60724000      24.10680100       0.01045750       0.00138940      -0.00600994
O        5.34866000      18.41580000      10.80284000       0.01970080       0.03326450      -0.00303735
H        6.95696000      18.17790000      11.80264000      -0.02887500      -0.01044100       0.00061377
H        4.32086000      16.94450000      10.68214000       0.00172358      -0.01736460       0.00393141
O        9.37004000       5.96535000      16.84042000       0.00197276      -0.01756860       0.07970890
H       10.13164000       5.65124000      18.82362000      -0.02638150       0.01170440      -0.07687800
H        7.51094000       6.03910000      16.89472000       0.00787634      -0.00281719       0.01001280
O       10.60240000       0.50637800       2.11245000       0.01935270      -0.01595610       0.03470140
H       11.01700000      23.95946200       3.69223000      -0.00739818       0.03732780      -0.00071055
H       10.30550000      23.41991000       1.24429000      -0.00776053      -0.01119840      -0.03710040
O       19.27186000       0.92600000       5.80456000       0.06401660      -0.03546870      -0.01782920
H       20.91506000       2.09614000       5.53806000      -0.04793210      -0.02973980       0.02443750
H       20.13816000      23.49639700       6.05836000      -0.01641540       0.06367800      -0.00216923
O       21.08233000      13.08352000       7.96596000      -0.01142850      -0.00877337      -0.05180660
H       19.34344000      12.01802000       7.69736000       0.05518270       0.03755160      -0.00838788
H       22.25289000      13.33182000       6.31186000      -0.04575310      -0.02690980       0.06198020
O        2.11319000       7.43516000      12.29290000      -0.20364100      -0.03546810       0.12217100
H        3.31054000       7.35226000      11.30380000       0.18655000       0.00424054      -0.14705400
H        1.01400000       6.00426000      11.63390000       0.01054110       0.02967780       0.02069330
O       11.41184000      18.75940000      19.04910000       0.01316460       0.03523150       0.03020610
H       10.64004000      17.21900000      18.78500000      -0.02163010      -0.04474620      -0.01659840
H       11.03624000      19.03200000      20.88310000       0.01143420       0.00255098      -0.01201410
O        0.52746000      11.62246000      24.40286000       0.00002760      -0.01180130      -0.06484310
H       23.81260000      10.50956000       0.94322000       0.02298040      -0.00021135      -0.02505180
H        0.94126000      10.98156000      22.49896000      -0.01942220       0.01012580       0.08031890
O        7.70131000       2.90146000      22.86080000      -0.00911234       0.01140760      -0.00396528
H        8.31115000       1.53076000      21.84010000       0.00459928      -0.00575331      -0.00633984
H        8.85477000       2.98156000      24.24490000       0.00089735      -0.00630636       0.00760184
O        4.99167000       0.18294000      16.33110000       0.09787780       0.04843840       0.00367896
H        3.98161000      23.43238000      16.95820000      -0.06431900      -0.05681190       0.02521870
H        6.55761000      24.30128000      17.46710000      -0.02555640       0.01159710      -0.03027420
O        0.70324700      20.77110000       1.80083000      -0.02498310      -0.02049930       0.05769220
H        1.56574000      19.08320000       1.84786000      -0.01269630       0.02601950       0.00775412
H       24.07652200      20.90360000       3.61021000       0.04406940      -0.00178002      -0.05580090
O       23.17992000       3.03867000      10.89550000       0.03245490      -0.02529510       0.00106755
H       23.57752100       3.52547000       9.05090000      -0.02023430      -0.01847820       0.04695940
H       23.97578700       1.36390000      11.51660000      -0.01900200       0.04498060      -0.03033210
O       13.14708000       5.50982000      20.48818000      -0.00691036      -0.02051850       0.04256720
H       14.09258000       6.82842000      19.74748000       0.01312220       0.02034000      -0.01082180
H       13.63968000       5.43312000      22.42798000      -0.01553280      -0.00558975      -0.03912410
O        9.98591000       9.66722000       5.84064000       0.01097600       0.01761960      -0.03743950
H       10.96960000       8.26232000       6.67304000       0.00248611       0.01691750      -0.02952420
H       10.68010000      10.53382000       4.17094000      -0.01235250      -0.04112680       0.06196470
O        8.00048000      16.18566000       2.28417000       0.07637860      -0.04825040      -0.00648464
H        9.08738000      14.56086000       1.84737000      -0.02360560       0.05379370       0.01259020
H        6.46888000      15.70326000       1.54968000      -0.04464820      -0.00108313      -0.00274307
O       15.40140000      10.28346000      18.63310000      -0.00253587      -0.00167943      -0.04629740
H       16.99140000       9.91786000      17.65190000      -0.00419975      -0.00362047       0.01290760
H       14.24980000      10.62516000      17.16450000       0.00853406      -0.00258692       0.02973750
O        6.64804000       9.49394000      10.39070000       0.08518550       0.01160530       0.04966570
H        8.00684000       9.50144000       9.01994000      -0.03410490       0.00634265       0.03344160
H        7.84484000       9.74604000      12.17780000      -0.04434670      -0.01191490      -0.08002500
O        3.70548000       5.42535000      16.61950000       0.05227350      -0.06676830       0.01047270
H        4.57878000       3.56197000      16.48390000      -0.04547710       0.05853370       0.00685901
H        3.18998000       5.84916000      14.93180000      -0.00443103       0.00675087      -0.01249060
O        4.70974000       8.17194000       4.21216000       0.08651250      -0.03029750       0.02593220
H        6.54444000       8.33074000       4.98406000      -0.04700480       0.02025350      -0.02019790
H        4.78904000       6.30904000       4.55826000      -0.03172190       0.01645840      -0.00784513
O       14.76160000      17.43620000       1.14996000      -0.01135400       0.00743920      -0.04152580
H       15.12540000      17.44070000       2.90376000       0.00914125      -0.02248530       0.01950060
H       15.17000000      15.96060000       0.06136000       0.00281433       0.01181840       0.02892320
O        6.13404000      24.27900100       8.71206000      -0.11941000      -0.02598350       0.05654000
H        7.75174000      24.29649600       8.24986000       0.09204380      -0.01319120      -0.02247880
H        5.68934000      22.72195000       9.76996000       0.01996530       0.04163400      -0.03387180
O       15.15026000       8.15653000      11.34266000      -0.04832760      -0.10637300       0.12406800
H       16.22356000       6.74467000      12.05796000      -0.00784362       0.03457390      -0.01922290
H       15.79866000       9.00122000      10.09676000       0.06486330       0.06769050      -0.10006000
O       19.85026000      16.62138000      17.13525000      -0.02470090       0.02530020      -0.07781970
H       20.40807000      15.64928000      18.41155000       0.03248620      -0.03799840       0.07301300
H       19.95296000      15.43568000      15.72339000      -0.00116365       0.00481373      -0.00028700
O        9.45362000       3.26474000      12.15634000      -0.11539000      -0.01274930       0.03677430
H        9.20932000       3.68364000      13.99734000       0.02790910       0.00052291      -0.02815250
H        7.39052000       2.86834000      12.01574000       0.08757090       0.00841504      -0.01179840
O        9.28273000      23.63769400      19.38930000       0.07095020       0.01056930      -0.03293560
H       11.17220000      24.02184800      18.57330000      -0.06766450       0.00304638       0.02429670
H        9.53756000      21.85246000      19.65050000      -0.00877404       0.00016046       0.00077951
O       16.33308000      21.38594000      22.68356000       0.01315060       0.00974463      -0.03392400
H       16.69548000      20.63967000      20.94826000      -0.01548820       0.01354160       0.03443530
H       15.64378000      20.16745000      23.84276000       0.00075527      -0.01336390      -0.00322816
O       10.95950000       9.89524000      14.69795000       0.03504880      -0.03584150      -0.01922030
H        9.92610000       8.49194000      15.67377000       0.04156030       0.01758460      -0.02387530
H       12.51750000       9.02624000      13.70004000      -0.06267960       0.02658270       0.03313050
O       19.65960000      18.32240000       8.59140000      -0.01880650       0.02661270       0.00456512
H       19.92910000      18.38690000      10.44670000       0.00517951       0.00527384      -0.01070600
H       19.87450000      16.67380000       8.06838000       0.01055770      -0.05529960      -0.00685175
O       16.48730000      20.27630000      17.45905000      -0.02369750       0.05183710       0.00692068
H       14.96230000      19.39660000      17.64998000      -0.02640990      -0.01644090       0.00201397
H       17.78020000      19.14720000      17.73592000       0.04133850      -0.03943370      -0.00208093
O       22.48240000      21.44276000       6.39096000      -0.01627490      -0.04631200      -0.00033061
H       21.45380000      19.78196000       6.63306000       0.01272830       0.03901900      -0.00167533
H       23.24270000      21.35896000       8.08996000       0.01106230       0.01832200      -0.01031570
O       17.16888000       9.30063000       1.97706000       0.01647390      -0.06219600       0.05164820
H       16.73119000      10.49970000       0.76927300      -0.01431950       0.02007750      -0.03907620
H       16.52186000       7.54364000       1.78625000      -0.00323112       0.03897360      -0.00860789
O       17.17360000      23.74068000      13.63650000      -0.05604620      -0.00466728       0.08280090
H       15.84830000       0.15784000      12.70840000       0.00914083      -0.00208514      -0.00860957
H       16.14300000      23.44138000      15.49550000       0.05353670       0.01060110      -0.08451380
O       21.76929000      13.20550000      13.18806000       0.00660591      -0.02429270      -0.03131160
H       21.57355000      11.57290000      14.11236000       0.00141662       0.02009720      -0.01958900
H       21.88497000      12.85480000      11.23166000      -0.01035020       0.00613535       0.05098100
O       21.39686000      20.22746000      22.67722000      -0.05524760      -0.00268046      -0.01738000
H       22.48486000      20.83416000      23.92995500       0.02804150       0.00909758       0.02508240
H       19.68756000      21.01716000      23.02848000       0.03381440      -0.01847310      -0.00808089
O       24.10680000       7.21191000      19.57718000      -0.17455500       0.04649660       0.14529700
H        0.85196000       6.70995000      18.61388000       0.11352000      -0.07917000      -0.08557920
H       23.09330000       5.98217000      20.85318000       0.05877370       0.02519170      -0.05147250
O       10.67254000      22.97596000       6.78431000      -0.03252520       0.05782190      -0.03770440
H       11.98354000      23.60556000       7.75198000       0.04229330      -0.00434012       0.02924640
H       10.32534000      21.28066000       6.63876000       0.00322928      -0.05651100       0.01385210
O        9.26905000      17.47028000      13.60966000       0.03669950       0.01317320       0.05466390
H        9.22672000      15.78278000      14.61896000      -0.00032267       0.05332520      -0.01951870
H       10.10050000      18.92018000      14.72136000      -0.03195640      -0.06136230      -0.03577020
O       23.05666000       4.42676000       6.28331000      -0.01590410      -0.00250296      -0.02092560
H        0.24877900       3.66976000       6.06491000       0.01839250       0.00063334      -0.01596620
H       22.71465000       5.42736000       4.73904000       0.01080070       0.00790982       0.01530730
O       15.10141000      16.45597000       6.66001000      -0.14090600      -0.01588430      -0.01481290
H       12.98064000      17.01574000       7.32246000       0.09272240      -0.01559140      -0.02152500
H       16.31543000      17.35019000       7.50757000       0.03201560       0.03856790       0.03695810
O       19.87428000       8.94278000      16.48160000      -0.00025638       0.01800600       0.01423100
H       20.94087000       8.79535000      17.96400000       0.00682729      -0.00216539      -0.00657308
H       19.86976000       7.24731000      15.75930000      -0.00153882      -0.00851365      -0.00892789
O       22.37830000       7.67614000       2.31113000      -0.07183240       0.09512560       0.07053370
H       22.18590000       6.38454000       1.25148000       0.00006596      -0.07700550      -0.07213990
H       20.44290000       8.37534000       2.43291000       0.06488180      -0.01831100      -0.00369578
O       22.84700000       3.32631000      23.37526000      -0.03350060      -0.00451725       0.00286244
H       21.26070000       2.32402000      23.92166000       0.04209360       0.01579470      -0.01361320
H       24.43140000       2.37635000      23.51326000      -0.01216550       0.00023679       0.00776225
O       18.57060000       1.38196000       0.69852000      -0.02800850      -0.03876980       0.01420090
H       18.87990000       0.75056000       2.51662000      -0.00854010       0.01751460      -0.02161540
H       17.54790000      24.43360000      24.31436000       0.02282200       0.02366660       0.01116090
O        7.09954000       8.63696000      23.49360000      -0.13902400       0.30395400       0.14262300
H        7.69414000       7.32398000      23.13710000       0.13063900      -0.30454100      -0.08281830
H        6.59564000       8.53843000       0.99036000       0.00428797       0.00194646      -0.06377390
