192
Lattice="23.06847 0.0 0.0 0.0 23.06847 0.0 0.0 0.0 23.06847" Properties=species:S:1:pos:R:3:force:R:3 TotEnergy=-1103.04557 cutoff=-1.0 nneightol=1.2 pbc="T T T"
O        4.74380000       0.99840400       1.42239000      -0.00042375       0.00293132      -0.00432994
H        3.48131000      22.99225200       2.34634000      -0.00031316      -0.00262982       0.00028157
H        3.73621000       1.77632000       0.14159100       0.00089560       0.00261613      -0.00816129
O        7.98454000       3.76716000       3.29370000       0.00358555      -0.00448153       0.00592363
H        6.66569000       2.63245000       2.50031000       0.00473922       0.00224720       0.00365760
H        7.24184000       3.65480000       5.07650000       0.00446467       0.00298053       0.00488876
O       14.45010000       1.26519000      21.09090000      -0.02148770       0.01431180       0.00140410
H       12.80630000       0.85825100      20.34580000       0.00900939       0.01398360       0.01603730
H       14.11710000       2.97807000      21.75020000       0.00634516      -0.01226480      -0.01977540
O        3.64463000       6.56130000       1.74283000       0.00772059      -0.01148780       0.01398290
H        5.20319000       5.67054000       2.27624000      -0.01014580       0.01277700      -0.00447918
H        2.44649000       6.09431000       3.06558000      -0.00321488      -0.00369062       0.00139622
O       21.06270000       2.99712000      15.50390000       0.00441620       0.00913560      -0.00143962
H       20.42700000       2.78167000      13.71670000      -0.00295438      -0.00186055       0.00556787
H       19.84660000       2.26923000      16.62250000       0.00140753      -0.00729069       0.00258056
O        6.33216000      18.33370000       0.91169800      -0.00034375      -0.00292902      -0.00025407
H        5.28885000      17.74550000       2.29029000      -0.00290416      -0.00167051       0.00517065
H        7.64790000      19.14920000       1.88669000       0.00253163       0.00150268      -0.00076926
O        7.56122000       1.03826000      17.15730000      -0.01478380       0.00057782      -0.00858055
H        6.68479000       2.47140000      17.86570000       0.00193397      -0.00487392      -0.00113342
H        6.13467000       0.24045400      16.30560000       0.00886769       0.00878028       0.00106316
O       10.18410000       5.36372000      14.79850000      -0.00273877       0.00094896      -0.00453331
H        9.37507000       6.97822000      15.08830000      -0.00092308       0.00435532       0.00254986
H        8.73009000       4.24643000      14.76860000       0.01025580      -0.00375346      -0.00138161
O        2.95977000      19.91480000      20.63340000       0.03160630       0.01303850       0.01844520
H        4.10879000      19.66440000      22.15680000      -0.01887560       0.00123289      -0.02051690
H        1.63125000      18.75860000      20.65010000      -0.02202560      -0.02182750       0.01215940
O        1.48781000       8.57454000       8.87430000       0.00003720       0.00350511      -0.01140050
H        2.02892000       9.97874000       7.68491000      -0.00524332      -0.00273279       0.00464189
H        0.98120900       7.15172000       7.78857000       0.00518837       0.00542093      -0.00390464
O       10.15100000       8.72937000       4.39938000      -0.00369469      -0.00592068      -0.00208732
H       11.49940000       7.66572000       3.74793000       0.00344520       0.00116817       0.00755953
H        8.64659000       7.69612000       4.38410000       0.00767109      -0.00075909       0.00143014
O        3.93582000       8.12288000      20.00760000      -0.03931750       0.00238069      -0.01051760
H        2.13488000       8.56821000      19.63880000       0.03213470      -0.00786659       0.00121016
H        3.75446000       6.40526000      20.61910000       0.00421550       0.00955055       0.00104454
O       13.38630000      11.70930000      17.31450000       0.04167230       0.01310110       0.02318800
H       13.45160000      10.14020000      18.36860000       0.00160196      -0.00282475      -0.00468659
H       14.90610000      12.59550000      18.06740000      -0.03870690      -0.01706440      -0.02001560
O        5.78051000      13.93020000      21.48270000      -0.00276393      -0.00005742      -0.01003950
H        6.36737000      13.70200000      19.75760000      -0.00212278       0.00122736       0.00603391
H        6.38463000      15.58150000      22.00670000      -0.00655067       0.00273114      -0.00042307
O       14.60560000       7.45931000      19.60360000       0.00290873       0.00964808      -0.01036950
H       13.15350000       6.83669000      21.01510000      -0.00700731      -0.00306210       0.00443797
H       14.26750000       6.76373000      17.96060000       0.00088110      -0.00721362       0.00891386
O       14.97390000      22.23400000       9.73770000       0.00537216      -0.00672783      -0.00813516
H       13.41520000      22.24700000      10.68440000      -0.00364590      -0.00237624       0.00154667
H       15.50260000       0.89533000       9.64317000      -0.00003393       0.00033649      -0.00397940
O        5.23811000       7.09549000      11.94490000       0.00166055      -0.00553829       0.00247932
H        3.93178000       7.73262000      10.79600000      -0.00089727      -0.00267235      -0.00187160
H        5.44515000       8.34062000      13.26320000      -0.00043353       0.00036986       0.00066758
O       20.87210000      15.62110000      15.32980000      -0.00691967       0.00066611       0.00273916
H       20.36270000      13.91510000      15.08630000      -0.00122467      -0.01227440      -0.00127166
H       21.07240000      16.32180000      13.64010000       0.00493557       0.00271938       0.00761571
O       19.76060000       6.22013000       2.17891000      -0.01014720       0.00693472      -0.02090190
H       19.46830000       8.03964000       1.83823000       0.00633060      -0.02273110      -0.00611643
H       20.12670000       5.26825000       0.54507000      -0.00087778       0.01179960       0.02124040
O        8.46850000      19.00200000      18.29860000      -0.00007950       0.03783900       0.02765850
H       10.68420000      19.22540000      21.51060000       0.03038720      -0.01396160       0.01219390
H        9.46727000      19.44790000      16.83840000       0.01120510       0.00045972       0.00534687
O       12.83510000       1.77929000       2.66519000      -0.00213924       0.01994980       0.02388420
H       12.04490000       0.34731300       1.80837000       0.00334810       0.02096170      -0.00200477
H       11.66790000       2.65303000       3.88307000      -0.00498472      -0.01363010      -0.00805628
O        3.94322000      21.82610000      11.14590000       0.00554298       0.00158248       0.00025096
H        3.59545000      21.43160000      12.87510000       0.00060876       0.00213899       0.00226875
H        5.52230000      20.95060000      10.70900000       0.00089114       0.00342278      -0.00102657
O       18.65190000      10.74930000      14.24420000      -0.00547467      -0.01065500      -0.01074680
H       19.25640000       9.84798000      15.81390000      -0.01203900       0.00152285      -0.00014614
H       19.15760000       9.42589000      12.91470000      -0.00327342       0.01225560      -0.00016161
O        1.98563000      20.92400000       3.20341000      -0.00402598      -0.00101327       0.00141395
H        3.17306000      20.26060000       4.58499000      -0.00943075      -0.00139296      -0.00813390
H        0.25647400      20.70310000       3.70961000      -0.00158232      -0.00224258       0.00331102
O       12.36420000      18.59770000      22.19420000      -0.03772540       0.00936011      -0.05621830
H       12.37680000      16.59900000      22.23630000       0.01516140      -0.00829515      -0.00515725
H       12.69980000      19.22780000       0.74693000      -0.00261031       0.01119980       0.04407550
O       16.77150000       4.41947000       8.22300000      -0.00952059      -0.00771259       0.01379240
H       15.69870000       5.37504000       6.35798000      -0.00978604       0.00532603      -0.02141810
H       16.53770000       5.69992000       9.45556000      -0.00135072       0.00450378       0.00004274
O        3.94513000      19.48250000      15.96410000      -0.00554210       0.00072537      -0.02122840
H        3.77082000      19.26710000      17.77440000      -0.00232131       0.00404579       0.00553757
H        5.71298000      19.75700000      15.80010000       0.00435401      -0.00816631      -0.00326697
O       14.97920000       6.15275000       4.44296000      -0.00241346      -0.00421609       0.01439410
H       16.51600000       5.72102000       3.58228000      -0.00072118       0.00405319      -0.01020370
H       12.95950000       3.33924000       1.52349000      -0.01160090       0.00907578      -0.00558723
O        2.21329000       1.68106000      20.04860000       0.00051639       0.01102460       0.00489570
H        2.11637000      22.93086000      19.83870000       0.00554086      -0.00449717       0.00336800
H        1.98679000       2.47382000      18.43870000       0.00374715       0.00180234      -0.01157810
O       20.63660000      18.23060000       3.86730000       0.01256920       0.00324669       0.01113250
H       20.78560000      17.38780000       2.28716000      -0.00649496      -0.00922729      -0.01105910
H       18.93430000      18.75700000       4.13899000      -0.00822294       0.00552805      -0.00262742
O       21.40220000      14.44200000       0.05534400      -0.00141190       0.00127644      -0.01037310
H       22.29450000      13.48070000       1.29129000       0.00147593      -0.00239771       0.00812471
H       20.31120000      13.17500000      22.37402600       0.00295785       0.00161305       0.00097379
O        6.95252000       9.71451000      15.92110000       0.00755955      -0.00889114      -0.01410210
H        7.11717000      11.49780000      15.66850000       0.00444193       0.00444933       0.00587226
H        6.08351000       9.42220000      17.47720000      -0.00775122      -0.00326181       0.00996612
O       13.53680000      14.32650000      21.76920000       0.01326310      -0.00891534       0.01516200
H       13.02840000      13.00240000      22.97400000       0.00122852       0.01080550      -0.00247842
H       15.33830000      14.63080000      22.09190000      -0.01787500      -0.00494772       0.00209360
O       12.67990000      20.94620000      16.77910000       0.00486143       0.00939558       0.00868297
H       13.03310000      21.84610000      18.31820000      -0.00269614      -0.00648624      -0.01294380
H       14.08460000      19.73360000      16.68300000      -0.00067948       0.00771919      -0.00274750
O       20.08630000       7.66032000      10.83680000       0.00811061       0.00486882      -0.00333247
H       19.76460000       6.42111000       9.51261000      -0.00229010       0.00231494       0.00625137
H       21.75140000       8.38026000      10.35780000      -0.00207343      -0.00219531      -0.00195797
O       20.96670000       3.45445000      21.39770000      -0.00749211       0.00970662       0.00717761
H       22.69570000       2.83773000      21.27600000       0.00789652       0.00153291      -0.00129774
H       20.03790000       1.97339000      20.95930000      -0.00423313      -0.00226016      -0.00492060
O       10.49450000      19.67240000       3.48698000       0.00161294      -0.00450739       0.01045580
H       10.81610000      18.31090000       4.73981000       0.00476227       0.00688775      -0.01182560
H       11.03840000      21.17030000       4.32057000      -0.00161423      -0.00191931       0.01399620
O        9.36121000      13.12250000       2.01910000       0.01190650       0.01955810      -0.01047070
H        7.92515000      13.01000000       0.92700000      -0.00558914      -0.00153203      -0.00458291
H        9.54170000      11.52910000       2.83583000       0.00273624      -0.01887570       0.01435010
O       10.78350000      22.82460000      12.23560000       0.00032296       0.01025260       0.00507673
H       11.30770000      22.44490000      13.94870000       0.00031892       0.00197308       0.00001971
H       11.06720000       1.53623000      12.00980000      -0.00769915      -0.00341948       0.00448728
O       19.53460000       2.05556000      11.20630000       0.00165055      -0.01197060      -0.00767275
H       18.15770000       2.60501000      10.06550000       0.00959698       0.01005120       0.00178168
H       20.81400000       1.55904000      10.00400000       0.00671065      -0.00742999       0.00076194
O        9.25674000       0.78918600      21.88030000      -0.00561496       0.00056889       0.00771824
H        8.76002000       0.63983600       0.56153000      -0.00702327      -0.00536229      -0.00567119
H        8.42638000      20.69187000      19.20500000      -0.01117520      -0.02726860      -0.02053770
O        2.86332000      11.34080000       1.42904000      -0.01511080      -0.02181320      -0.01390730
H        3.33907000       9.51849000       1.21825000       0.00286482      -0.00499463       0.00944633
H        2.84983000      12.19470000      22.91442900       0.01602390       0.01344100      -0.00819969
O        4.83022000      18.69620000       5.98397000       0.00617232      -0.00139907      -0.00137780
H        3.49481000      17.99520000       7.01845000      -0.00069135      -0.00588990       0.00030757
H        6.20873000      19.24120000       7.19505000       0.00360127      -0.00589995      -0.00213997
O        8.76476000      14.08790000      17.39900000       0.00885424       0.00949661       0.01370900
H        9.96421000      13.63990000      18.74100000      -0.00611868       0.00125293      -0.02083930
H        8.51914000      15.90420000      17.58630000      -0.00055879      -0.00690920       0.00099037
O       22.59530000      19.11310000      12.51120000      -0.01449140      -0.00407337      -0.02462980
H        1.18813000      18.58940000      12.89580000       0.01844290      -0.00163084       0.00725759
H       22.01260000      19.92630000      13.98400000      -0.00474594       0.01115110       0.01231640
O        7.96459000      19.54340000       9.26917000       0.00090077      -0.00200433       0.00120243
H       12.54490000      16.01160000      16.09000000      -0.00080249       0.00001754      -0.00226975
H        9.70857000      19.95170000       9.06706000       0.00266246       0.00088946       0.00540341
O       15.93370000      20.83130000       4.69801000      -0.01227670      -0.00020425       0.00694250
H       15.41840000      22.47350000       5.29547000       0.01219030      -0.00038540      -0.00342233
H       15.63780000      19.87690000       6.23448000      -0.00006103      -0.00234201      -0.00626512
O        3.19754000       3.33442000      15.11690000       0.00297928       0.00191392      -0.00346266
H        1.54185000       2.78866000      14.60020000      -0.00083364       0.00302331       0.00000721
H        3.79083000       4.53698000      13.83650000      -0.00158417      -0.00184148       0.00321481
O       18.55330000      22.59450000      19.03970000       0.00577496      -0.00632618      -0.00479845
H       17.59470000      22.14220000      17.56700000       0.00352902      -0.00329203      -0.00157264
H       17.27040000       0.13213000      20.18530000      -0.00859252      -0.00195845      -0.00147788
O       18.36970000      10.11350000      22.38470000      -0.00762693      -0.00326291      -0.01636680
H       17.36590000       8.89314000      21.41220000       0.00230678       0.01100200       0.00164532
H       17.13910000      11.04920000       0.35733000       0.00475448      -0.00515635       0.00459209
O        3.03736000      12.44500000       5.87176000       0.00670809      -0.00723770      -0.01543310
H        3.38757000      12.20380000       3.15168000      -0.01256050       0.00543565       0.04422870
H        2.22453000      13.94730000       6.59696000       0.01142250      -0.01458710      -0.00780218
O        0.64553000      16.54010000       7.58130000       0.00668729      -0.00602063       0.01058090
H       22.50370000      16.78200000       6.23549000      -0.01080120       0.00944295       0.00200176
H       22.91930000      16.65710000       9.19906000      -0.00617405       0.00578696      -0.00457352
O       22.75820000       4.94360000       5.40076000      -0.00634802      -0.00457506      -0.00225122
H       22.84970000       3.30993000       6.28458000      -0.01267670       0.02391540      -0.01715680
H       21.18130000       5.36251000       4.09470000       0.03380960      -0.01414080       0.02992360
O       11.67950000       5.89594000      22.69360000       0.00261129      -0.01213730       0.00143100
H       10.46520000       7.02293000       0.40513000       0.01103540      -0.01123350      -0.00555749
H        8.35135000       2.35485000      21.51660000       0.01639780      -0.01222880      -0.00314197
O        0.19410200      22.92520000       7.96495000      -0.01242330       0.00330035       0.00497627
H        1.33668000      22.31110000       9.26669000       0.00251261      -0.00258160       0.00342904
H        1.34514000       0.47323000       6.73593000       0.01011740       0.00110244      -0.00853106
O       13.39890000      15.29810000       5.43488000      -0.01653150      -0.00152064      -0.02061270
H       11.86740000      14.75170000       7.68624000       0.00523710       0.00154752       0.01265810
H       12.08400000      14.85540000       4.20877000       0.00934303       0.00194081       0.01094140
O        7.40458000      11.19710000       8.65739000      -0.00559821      -0.00636855      -0.00289859
H        7.74704000       9.58651000       9.39393000      -0.00878891      -0.00600897      -0.00145681
H        6.04245000      10.93600000       7.42539000       0.00271163       0.01410960       0.00769821
O       20.57060000       7.56080000      17.56490000       0.00231653      -0.00638744       0.00516731
H       20.96360000       6.04379000      16.53400000       0.00004069       0.00343165      -0.00051775
H       20.04190000       6.74500000      19.12380000       0.00261110       0.00846654      -0.00757224
O       16.06220000      12.01710000       2.97745000      -0.00407666      -0.00851194       0.00819230
H       16.07090000      10.31700000       3.68895000      -0.00870802       0.00952760       0.00224189
H       15.05100000      13.19000000       4.12957000       0.00298189       0.00258765       0.00125615
O       11.10380000      14.42970000       9.48135000       0.00990197       0.00184316      -0.00423202
H       14.03860000      13.64690000      11.38740000      -0.01638150      -0.00154963      -0.00695821
H        9.60777000      13.38200000       9.16146000       0.00348836       0.00330876       0.00176956
O       16.66820000      18.57550000      15.67510000       0.00897511      -0.00519843       0.00552299
H       18.14940000      17.63630000      16.25090000       0.00050217      -0.00065824      -0.00426188
H       15.70330000      17.36480000      14.74120000      -0.00103906      -0.00327194      -0.00802801
O       13.38750000       7.60627000      11.42850000      -0.01830320      -0.01702020      -0.02400540
H       13.25220000       5.96931000      12.27210000      -0.02218990      -0.00021343       0.00036920
H       14.40340000       8.66469000      12.41950000       0.01974900       0.03333280       0.01665820
O       14.41630000      12.37810000      12.69660000       0.02410590      -0.00924589       0.02313880
H       13.34830000      12.57000000      14.27090000       0.00825495      -0.00018354      -0.00633554
H       16.45130000      11.86780000      13.45060000      -0.00563820      -0.00133672      -0.00041084
O        5.63486000       3.68529000       7.26961000      -0.00547820       0.00171313       0.00210497
H        5.40789000       2.94803000       8.90411000       0.00314869      -0.00341885       0.00286504
H       11.78510000       8.46749000      10.97820000       0.01083540      -0.01274770       0.00485862
