192
TotEnergy=-1103.46880000 cutoff=-1.00000000 nneightol=1.20000000 pbc="T T T" Lattice="24.88844000       0.00000000       0.00000000      -0.00000100      24.88844000       0.00000000      -0.00000100      -0.00000100      24.88844000" Properties=species:S:1:pos:R:3:force:R:3:Z:I:1
O              23.70530000     -4.12340000    -30.45630000     -0.02058200      0.01500000      0.01133400       8
H              21.96790000     -4.20088000    -31.11350000      0.01548280     -0.00508630     -0.00465948       1
H              24.57100000     -5.63771000    -30.82500000     -0.00142083     -0.01961420     -0.00533641       1
O              47.70600000     46.34570000      0.07264300      0.02402500      0.06748800     -0.03439820       8
H              48.12030000     48.35470000      0.25439700     -0.01033410     -0.07339220     -0.00142040       1
H              48.30850000     45.99480000     -1.71770000     -0.01199550      0.00693496      0.03592220       1
O              11.90660000      5.29364000     14.92340000     -0.08393270      0.01730040     -0.14159800       8
H              12.69870000      4.95951000     16.27760000      0.08002080     -0.03651630      0.14775600       1
H              11.40210000      3.63760000     14.18240000      0.00408183      0.01985120     -0.00285698       1
O              -5.37009000    -10.20490000     -3.25073000      0.05328790     -0.00273024     -0.03964760       8
H              -3.95614000    -10.82260000     -4.59979000     -0.03964790      0.02191120      0.04780090       1
H              -5.00527000     -8.43309000     -2.67094000     -0.00773964     -0.03280540     -0.00827525       1
O               5.75817000     32.28160000     18.89600000      0.01084940      0.02023710      0.01754770       8
H               6.69776000     33.37750000     20.07740000     -0.00389862     -0.01095640      0.00851952       1
H               6.40891000     33.04760000     17.39120000     -0.00065283     -0.00693317     -0.02256090       1
O              -4.87090000      9.73313000      7.58097000      0.01043790      0.03511650     -0.01508730       8
H              -4.83701000      8.19253000      8.46486000     -0.00722830     -0.02602750      0.01252770       1
H              -6.18531000      9.61829000      6.34173000     -0.00592361     -0.01316480     -0.00634238       1
O              46.74340000     26.20000000     11.67820000      0.04124530     -0.03904990      0.01318640       8
H              48.64690000     25.61100000     12.29270000     -0.06331310      0.02210140     -0.01750040       1
H              45.64300000     24.68110000     11.40910000      0.02209960      0.02241510      0.01196160       1
O              -2.59649000    -28.81830000      8.31131000      0.06247180     -0.02353910      0.01517770       8
H              -2.40979000    -29.73120000      6.76557000     -0.00519865     -0.01386290     -0.01673210       1
H              -4.08578000    -27.97660000      8.39785000     -0.06465510      0.02291600      0.00469338       1
O              31.91390000    -34.55170000     19.34550000      0.04571330      0.02388460      0.02138180       8
H              30.58700000    -35.26500000     18.44660000     -0.02320640     -0.01779900     -0.00590712       1
H              32.65500000    -35.64880000     20.64680000     -0.01510140     -0.00501801     -0.01501520       1
O               9.90743000    -27.03220000    -25.58530000      0.03705000     -0.02904680      0.04128200       8
H              11.79430000    -27.17040000    -26.32420000     -0.05593810      0.00104126      0.02810450       1
H               9.75653000    -28.01810000    -23.76370000      0.01301180      0.02592680     -0.06848400       1
O             -10.86960000      0.75703300      8.36079000     -0.06085450     -0.00121613      0.09200190       8
H             -11.38460000      1.25569000      6.76765000     -0.00760755      0.01610400     -0.04594390       1
H             -12.60020000      1.16846000      9.54625000      0.07187810     -0.01794630     -0.03561760       1
O             -11.61030000     28.90170000     53.94990000      0.01232960      0.00285220     -0.02786060       8
H             -13.27520000     29.69860000     54.14160000      0.00617307     -0.01314130     -0.01815500       1
H             -11.07190000     28.63440000     52.09420000     -0.02992430      0.00795818      0.04157770       1
O              15.60050000    -32.26860000    -14.11580000      0.00516230     -0.02289790      0.02867360       8
H              16.66260000    -33.43690000    -15.12590000     -0.00586367      0.01385740      0.00370220       1
H              15.37000000    -33.10610000    -12.45380000      0.00089081      0.01689100     -0.02741300       1
O              30.84320000     13.80090000     37.80690000     -0.01119050      0.00035134      0.02175420       8
H              29.87020000     14.18150000     39.37480000      0.00773395     -0.00462542     -0.02927430       1
H              29.75100000     12.74830000     36.73500000     -0.00187918      0.00562603      0.00697099       1
O              -0.13953000      1.72881000      1.64689000      0.02595190      0.03181600     -0.07723370       8
H               0.08425900      1.41193000      3.33271000      0.01224430     -0.01585980      0.05905100       1
H               1.51254000      2.42599000      0.96813800     -0.03725220     -0.02179800      0.01819140       1
O             -32.12070000     22.77090000     35.97940000     -0.00683755      0.09858960     -0.02280130       8
H             -33.58610000     23.65490000     35.12660000      0.03085140     -0.00443334      0.01156460       1
H             -32.70490000     21.18630000     36.00520000     -0.02191650     -0.09237140      0.00662437       1
O             -34.25340000     11.49770000     24.03710000      0.07415540      0.00986424     -0.03042520       8
H             -34.69150000     10.84900000     22.26070000     -0.00264562      0.01189310      0.03534230       1
H             -32.35300000     12.16560000     23.72620000     -0.06778810     -0.01751440      0.00412325       1
O             -20.42310000     66.19580000    -21.01520000     -0.02797790     -0.05488500     -0.03729540       8
H             -19.83650000     64.81770000    -19.91690000     -0.00002021      0.01483580     -0.00834252       1
H             -21.33890000     65.08600000    -22.44640000      0.03195980      0.04238300      0.04970140       1
O              68.72190000     20.07270000     40.78840000     -0.02450620      0.02729900     -0.01150920       8
H              67.54140000     21.52800000     40.24470000      0.03122350     -0.05007090      0.01681200       1
H              67.65760000     18.61030000     41.36940000      0.00051793      0.02570660     -0.00189351       1
O              57.73550000    -19.50420000      3.83656000     -0.01020070      0.00774598     -0.03968830       8
H              56.66210000    -20.11350000      5.18751000      0.00403852     -0.01119590     -0.01184290       1
H              57.12950000    -20.14700000      2.08369000      0.00870760     -0.00452489      0.04426530       1
O              31.72140000     18.75100000    -13.25730000      0.03850970     -0.01005720     -0.03336950       8
H              33.09080000     18.13750000    -14.41720000     -0.00524488      0.05303980     -0.00236201       1
H              31.67190000     16.99480000    -12.94250000     -0.04038390     -0.04049940      0.04059100       1
O             -17.63000000      8.52441000     64.01340000     -0.03917170      0.03021370      0.01148780       8
H             -17.50240000     10.10640000     63.14160000      0.00087006      0.00800618      0.00085340       1
H             -16.22360000      7.61339000     63.60950000      0.04958380     -0.03091110     -0.00898555       1
O               6.42564000      2.06760000     -0.08030100      0.01853090     -0.00735397      0.00477324       8
H               5.31636000      2.28036000     -1.66666000      0.04153580     -0.01825180      0.02589260       1
H               8.00188000      0.80527700      0.12642200     -0.05851590      0.03164610     -0.03536780       1
O              44.98720000      5.00127000     26.11600000     -0.06457250      0.11434700     -0.02585750       8
H              44.36220000      6.77715000     27.08990000      0.00847617     -0.07087440     -0.04500060       1
H              45.82830000      4.38266000     27.42960000      0.05441730     -0.04917210      0.06900990       1
O              -0.57621300     62.34600000     31.20090000      0.03405420     -0.05293240     -0.00537736       8
H              -1.78669000     60.97350000     31.32680000     -0.00475544      0.00303520      0.00785525       1
H              -1.53967000     63.78110000     31.28940000     -0.03034190      0.04842050      0.00088165       1
O              11.11250000     37.44600000     11.02160000      0.06467580     -0.03207020      0.02776250       8
H               9.87347000     37.30240000      9.77083000     -0.02687030     -0.00292573     -0.02926990       1
H              12.36950000     35.99910000     10.80290000     -0.03093640      0.03384570      0.00903756       1
O             -18.08150000     20.71860000     20.01700000      0.00045896      0.00640404      0.00328062       8
H             -18.25040000     18.94130000     19.69080000      0.00249419     -0.01079320      0.00675298       1
H             -17.29590000     20.94300000     21.69790000     -0.00241838      0.00358283     -0.01662520       1
O              31.56850000     35.26070000     51.91590000     -0.07062770     -0.07367920      0.04793570       8
H              31.72500000     33.35730000     52.65380000      0.01020000      0.05818350     -0.02607400       1
H              29.47810000     35.38200000     52.18690000      0.07710180      0.01429190     -0.02174960       1
O              13.04780000     34.55880000     20.00610000      0.01816950     -0.06816130     -0.02276540       8
H              12.74830000     35.52750000     18.51460000      0.00191215      0.00893877     -0.01033770       1
H              13.67600000     32.61020000     19.31090000     -0.01010620      0.06344260      0.03088870       1
O               2.60654000    -25.93370000     18.06260000      0.05822380      0.01357430     -0.01869920       8
H               1.37363000    -27.12910000     18.33270000     -0.05540580     -0.02548960      0.01224610       1
H               4.08343000    -27.06100000     18.03630000     -0.00358166      0.02122270      0.00898998       1
O              -0.87051100     18.08430000      4.35871000      0.02560380     -0.01031260      0.06124460       8
H               0.80545900     18.39920000      5.27546000     -0.03910070     -0.00690530     -0.04787790       1
H              -1.15686000     18.98600000      2.84569000      0.01385230      0.01936510     -0.01832150       1
O               2.11405000      1.01092000     13.22000000      0.01558440     -0.03919730     -0.02853190       8
H               3.01929000     -0.40558000     11.82350000     -0.02714490      0.04118230      0.05424060       1
H               2.24054000      0.52373700     15.05250000      0.00454531     -0.00674824     -0.03248570       1
O             -34.30550000     55.12500000    -30.67910000     -0.17213800      0.04850050     -0.06108340       8
H             -33.08840000     55.29780000    -31.74970000      0.11627300      0.01265960     -0.09401690       1
H             -33.81370000     54.56800000    -29.25490000      0.04887410     -0.05951080      0.15038900       1
O               6.36636000     52.46470000    -16.74420000     -0.01565090     -0.02414240      0.01314630       8
H               5.24546000     53.67240000    -15.95120000      0.00081486     -0.00480146      0.00552696       1
H               5.59499000     50.75540000    -16.43070000      0.01332010      0.03289660     -0.00830494       1
O             -33.77820000     40.56390000      2.96868000     -0.01569030     -0.04151640     -0.03317190       8
H             -34.25410000     39.07290000      1.86105000      0.02628510      0.02238700      0.00733142       1
H             -35.47340000     40.71480000      3.52956000     -0.01435940      0.02164710      0.01796940       1
O              18.24060000     37.11230000     15.62650000     -0.01155530      0.02084360     -0.02256110       8
H              18.32480000     38.69700000     14.71510000      0.01704730      0.00245745      0.01272920       1
H              16.78290000     36.54230000     14.67970000      0.00020407     -0.02770480      0.00827575       1
O             -17.31050000    -12.62620000      7.28480000     -0.00815170     -0.04269840     -0.04908980       8
H             -16.94100000    -13.59000000      5.55655000     -0.01683310      0.03574980      0.05147930       1
H             -18.87960000    -13.45420000      7.92030000      0.01769350      0.00987890     -0.00607775       1
O             -46.46850000      3.40430000     20.62690000     -0.00324125     -0.02500300     -0.00816386       8
H             -46.79310000      2.00172000     19.44350000      0.00817960      0.00471317      0.01526900       1
H             -45.31250000      4.51670000     19.74690000      0.00038820      0.01142650      0.00004748       1
O             -21.82820000    -14.11130000     34.77590000     -0.03699800      0.07870460     -0.04143890       8
H             -22.23380000    -15.82580000     35.03320000     -0.01361360     -0.02068730      0.00833277       1
H             -23.33430000    -12.98650000     33.86320000      0.04967070     -0.05454320      0.02751050       1
O              18.80510000     15.18040000     32.37060000      0.02225840     -0.05727610      0.07958070       8
H              18.40670000     13.35640000     32.32510000      0.01392390      0.02046690      0.01238540       1
H              18.22920000     15.61460000     30.85150000     -0.03283180      0.03523520     -0.08870170       1
O             -20.62470000     -2.15331000     34.75550000      0.01729150     -0.03961680      0.05477180       8
H             -20.59970000     -3.93905000     35.52390000      0.02878480      0.03714550      0.00045377       1
H             -21.71940000     -2.68291000     33.52740000     -0.04430840      0.00932230     -0.05577400       1
O              43.43590000      5.19301000     34.38110000     -0.00579468     -0.01054050     -0.00556009       8
H              42.40870000      4.23097000     33.23620000     -0.01021170      0.00705671     -0.00502408       1
H              44.31010000      3.80754000     35.15150000      0.01623720      0.00031021      0.01360480       1
O              -8.83488000    -33.01830000     -6.59596000     -0.07434880     -0.02323200     -0.06395660       8
H              -7.58799000    -33.85360000     -5.68964000      0.02588840     -0.03060420      0.03099590       1
H             -10.02910000    -34.40200000     -7.52286000      0.03944270      0.04500950      0.03518990       1
O              53.01490000    -18.67310000    -12.53460000     -0.02720350     -0.04805530     -0.00788956       8
H              53.93920000    -18.19050000    -11.09220000      0.01722960      0.01585140      0.00944301       1
H              52.46440000    -20.42300000    -12.04200000      0.00252533      0.02107030     -0.01430630       1
O              10.22290000      1.45089000     12.07350000     -0.02670380     -0.00208921     -0.01054030       8
H               9.46329000      0.16417400     13.24750000      0.00813257      0.01728360     -0.01670990       1
H               8.85847000      2.10833000     10.93520000      0.01453180     -0.01114970      0.02011420       1
O             -35.06720000     -2.35861000     46.84120000     -0.00339188      0.01154890     -0.07132340       8
H             -35.32760000     -2.09478000     44.80220000      0.01330640     -0.02011870      0.08074760       1
H             -33.88200000     -3.76507000     47.14450000     -0.01065800      0.00669779     -0.00897824       1
O              11.96720000    -10.74690000     -8.79248000     -0.03445970     -0.00116440     -0.02963150       8
H              10.34850000    -10.09520000     -8.04768000      0.02723020     -0.01288640     -0.01281860       1
H              11.54710000    -11.19930000    -10.65650000      0.00572819      0.00859773      0.04105020       1
O              23.22100000     17.67460000     13.11940000     -0.02012690      0.05203350     -0.09337560       8
H              21.56360000     18.41300000     13.57640000      0.01682440     -0.00721079      0.00789631       1
H              23.19080000     18.54850000     11.09990000      0.00412423     -0.03888810      0.08842860       1
O               8.26335000     22.96920000     -9.56021000     -0.02714450     -0.04506780     -0.02617420       8
H               7.63383000     22.05360000     -8.10868000      0.01117370      0.01413800      0.02836900       1
H               7.49959000     21.71270000    -10.75310000      0.01904210      0.02158510     -0.00143154       1
O              24.96440000     49.80270000     31.72120000      0.03688900      0.06832190     -0.00519501       8
H              24.75500000     51.31610000     32.82220000     -0.00385859     -0.03461640     -0.01505420       1
H              23.76950000     48.58540000     32.15430000     -0.02613680     -0.02423590      0.01886050       1
O              -8.36348000      8.22749000      3.68836000     -0.00748744      0.01441150     -0.00220452       8
H              -8.76634000      9.37400000      2.25839000     -0.00782165     -0.01588580      0.01231930       1
H              -9.88644000      7.30874000      4.30419000      0.02108490      0.00717143     -0.01762520       1
O              13.35610000    -28.94270000     16.32690000     -0.01595510     -0.05951620      0.05466880       8
H              11.58170000    -28.65030000     15.96940000      0.00731310      0.00628593     -0.00118099       1
H              13.23850000    -30.53350000     17.62110000      0.01374090      0.06154960     -0.05150690       1
O               2.59217000     16.06160000     41.60230000      0.02454120     -0.05369270      0.05156170       8
H               1.22740000     15.04060000     42.33190000      0.00270758      0.00703545     -0.01319600       1
H               1.82808000     17.28260000     40.69010000     -0.03584730      0.04566360     -0.04671770       1
O              43.09160000     43.74290000     -1.02214000     -0.04188910     -0.02907020     -0.03908910       8
H              44.22710000     44.94210000     -0.53087700      0.04081890      0.03875820      0.03333510       1
H              42.22500000     42.86470000      0.30132800      0.00291274      0.00192969      0.01280760       1
O              23.14530000     13.15380000    -31.80410000      0.04210600     -0.07388380      0.01688950       8
H              24.27260000     11.45770000    -31.36550000     -0.03723060      0.05759690      0.00271551       1
H              21.94680000     12.30210000    -32.87900000     -0.00809958      0.00845462     -0.00842733       1
O             -15.45990000     44.26600000      3.38811000      0.01937020      0.00625808     -0.07776460       8
H             -17.03000000     43.69800000      3.80735000     -0.06483690     -0.02746570     -0.00191759       1
H             -14.85750000     44.60280000      4.93291000      0.04626810      0.02033850      0.07880280       1
O              11.47580000    -29.79180000     33.47030000      0.00432995      0.03053060      0.00692424       8
H              12.69110000    -30.63320000     34.53120000      0.00698111     -0.01479630     -0.00229705       1
H              11.99620000    -28.02540000     33.75840000     -0.01111890     -0.01727190     -0.00963960       1
O               2.07797000     36.98570000      1.20723000     -0.06725880     -0.05201010      0.01681980       8
H               0.55049900     36.54230000      2.49043000      0.05634800      0.02332190     -0.04724970       1
H               1.82290000     35.83300000     -0.32252500      0.00096693      0.02895220      0.02863550       1
O             -10.01570000    -16.06560000     12.83770000     -0.07707520      0.01207410      0.07404830       8
H             -11.00910000    -17.48660000     13.81030000      0.02308920      0.03314520     -0.03460370       1
H              -8.99619000    -16.82010000     11.71950000      0.05292990     -0.04285720     -0.05078300       1
O              -5.06652000      5.03435000     16.37510000     -0.01059430      0.04317170      0.05520840       8
H              -3.91096000      4.80481000     17.78570000     -0.00295692     -0.00301274     -0.01400540       1
H              -4.76794000      3.93520000     15.08240000      0.01884140     -0.04004540     -0.03921910       1
O              25.90040000    -15.82930000     -4.20722000     -0.11214900     -0.03043750      0.05112370       8
H              25.20940000    -17.74560000     -3.72606000      0.01804660      0.05736620     -0.02623140       1
H              27.48380000    -15.81180000     -4.77388000      0.08747310     -0.01605430     -0.03087260       1
O              23.31360000      4.84126000     46.25130000     -0.04033160      0.03278950      0.07356540       8
H              22.80340000      5.03500000     48.31520000      0.01947870     -0.02457950     -0.08523120       1
H              24.54810000      3.60714000     45.80660000      0.01147790     -0.00784296      0.01815760       1
O              15.24060000     28.05780000     48.90170000      0.04294930     -0.05697760      0.01593090       8
H              16.69340000     28.30600000     50.01630000     -0.00036128      0.02833740     -0.00403697       1
H              15.84420000     26.23580000     48.65250000     -0.03740560      0.02980920     -0.01237530       1
O             -16.31330000     10.72900000     21.85010000      0.01346830      0.00069255     -0.02984260       8
H             -14.53570000     10.21110000     21.34080000     -0.02152180      0.00342562      0.01591520       1
H             -16.69300000     10.49750000     23.58710000      0.00223723     -0.00306896      0.02022790       1
