192
TotEnergy=-1102.95514000 cutoff=-1.00000000 nneightol=1.20000000 pbc="T T T" Lattice="25.48800000       0.00000000       0.00000000      -0.00000100      25.48800000       0.00000000      -0.00000100      -0.00000100      25.48800000" Properties=species:S:1:pos:R:3:force:R:3:Z:I:1
O              15.72970000     15.32480000     24.04670000     -0.08143150      0.03453010     -0.08412870       8
H              14.09210000     14.66950000     23.05360000      0.05741190      0.01708670      0.03470910       1
H              16.17910000     14.12840000     25.17820000      0.02202770     -0.05493830      0.04267520       1
O              20.60600000     13.95830000     18.82270000      0.09027880     -0.00432909      0.01773110       8
H              19.71450000     12.62930000     19.47550000     -0.00456141     -0.07398800      0.04099310       1
H              19.15670000     14.50180000     18.22330000     -0.08810720      0.07397240     -0.06004940       1
O               8.89068000     13.09270000      1.14767000     -0.03208970     -0.08011420     -0.04552250       8
H               7.82838000     13.69730000      2.33850000     -0.04389930      0.02438290      0.04962340       1
H              10.24440000     14.07910000      1.15197000      0.07697080      0.05697200     -0.00127344       1
O               5.13490000      5.46439000      5.92093000      0.05397930     -0.02675400      0.04330730       8
H               4.66856000      5.27195000      4.26815000     -0.02513590      0.00603069     -0.05381810       1
H               4.03359000      6.43593000      6.87438000     -0.03067730      0.02729350      0.01308140       1
O              12.97780000     18.16330000      9.42779000      0.00297666     -0.00279817     -0.00551667       8
H              12.88150000     18.76370000      7.70492000     -0.00512365      0.00614838      0.00839795       1
H              11.60360000     18.80400000     10.46140000      0.00040798     -0.01017710     -0.01755230       1
O              10.87440000     11.08070000     15.77800000      0.01821970      0.00924934      0.05098900       8
H               9.47693000     11.99170000     15.25990000     -0.03918020      0.02335470     -0.00756151       1
H              11.33050000     10.23290000     14.34420000      0.01757270     -0.03023000     -0.04280430       1
O              19.05340000      3.12721000      9.75432000     -0.01225190     -0.04956110      0.00492823       8
H              20.56200000      3.74287000     10.43260000      0.03503850     -0.00862899      0.01303980       1
H              18.40850000      4.63596000      9.21150000     -0.03209820      0.05307160     -0.02436710       1
O               6.70011000      4.19937000     19.15770000      0.02182830     -0.04072530      0.09322070       8
H               5.36219000      4.20848000     18.14700000     -0.09420830     -0.01139400     -0.04872620       1
H               7.64668000      5.14477000     18.14550000      0.07663370      0.05580530     -0.05056910       1
O               8.56840000     24.35060000     20.21600000      0.04215050      0.08306180     -0.00274018       8
H               9.16704000     26.44150000     20.18610000     -0.04214440     -0.09700300      0.00151716       1
H               6.85310000     24.28940000     20.78020000     -0.00073956      0.00928807      0.00121315       1
O              23.99680000     13.93450000      6.74607000     -0.01817100     -0.03694790     -0.08869940       8
H              22.79010000     14.77010000      5.58392000      0.02341170     -0.02077900      0.00001914       1
H              23.68940000     14.96530000      8.03286000     -0.00111822      0.05568300      0.08761330       1
O              23.03410000     18.63660000     10.27040000      0.02314490     -0.00355401     -0.01004090       8
H              21.37680000     18.12940000      9.90497000     -0.02714700     -0.00222756     -0.00253402       1
H              22.96670000     19.30540000     11.95050000      0.00226015     -0.00119623      0.01476300       1
O              11.14750000     13.04710000      7.79011000      0.04551980     -0.11823700     -0.01551010       8
H              12.17460000     14.27300000      8.28120000      0.02831690      0.08831780      0.02773270       1
H               9.50668000     12.99720000      7.35761000     -0.07345210      0.03100330     -0.00957286       1
O               5.71236000     14.45500000      7.23086000      0.13648500      0.06489180      0.04813470       8
H               4.69235000     13.38420000      6.57894000     -0.11101700     -0.07900210     -0.05219310       1
H               5.23087000     16.01220000      7.94201000     -0.02754880      0.01156280      0.00239362       1
O              15.04720000     10.13230000      5.58741000      0.02231190      0.01252200      0.00556899       8
H              14.66200000      8.54178000      4.90178000     -0.00559159     -0.01903160     -0.00831577       1
H              13.51510000     10.84620000      6.19901000     -0.01570110      0.00961780      0.00230806       1
O              16.06950000      6.05029000     24.65050000      0.06835120      0.00458651     -0.05537420       8
H              14.68920000      6.92128000     25.06490000     -0.08018230      0.05212470      0.02319260       1
H              16.07330000      4.66348000     25.66730000      0.00842254     -0.05530260      0.04068130       1
O              22.35000000     22.65240000      0.41049900      0.01849040      0.06514570      0.04560830       8
H              23.37510000     21.81120000     -0.66051800      0.03110820     -0.03619250     -0.04503560       1
H              20.74510000     21.97070000      0.43283700     -0.04529270     -0.02878990      0.00060603       1
O               3.48102000      5.18964000     14.03070000      0.08435380      0.02909380      0.04014300       8
H               2.98525000      6.92221000     14.02120000     -0.01766560     -0.00329252     -0.00735023       1
H               2.42033000      4.01100000     13.42650000     -0.06385180     -0.03810300     -0.02949260       1
O              24.17270000     19.74550000     15.21950000     -0.03552520     -0.07419630     -0.01116880       8
H              22.40560000     19.98830000     15.69520000      0.02716400      0.03365430      0.00585742       1
H              25.59190000     20.77080000     14.98720000      0.00752660      0.04035150      0.01181940       1
O              23.07300000      6.36126000     21.62300000     -0.01369890      0.07783230     -0.01972150       8
H              23.27630000      4.73089000     21.96850000      0.01553630     -0.09928460      0.00481456       1
H              22.99100000      6.94771000     23.31030000      0.00304214      0.01949000      0.01856690       1
O              15.13690000      0.06154300      7.49379000      0.11289900     -0.00021135      0.02658900       8
H              17.08940000      1.18266000      8.59389000     -0.07222110     -0.03340640     -0.03359250       1
H              13.63290000      0.88903800      7.79640000     -0.03356490      0.03301110      0.01439100       1
O              13.42810000     23.86250000     22.95230000     -0.03013680     -0.02762680     -0.08047870       8
H              11.63310000     23.43190000     22.58480000      0.02620180      0.00135598     -0.01628140       1
H              13.07860000     24.38500000     24.50710000      0.00260532      0.03508600      0.09866930       1
O               6.01872000     14.19350000     14.97140000      0.10423700     -0.01471160      0.04993500       8
H               5.35189000     14.38280000     13.45170000     -0.05676270      0.01277340     -0.07791680       1
H               5.05238000     14.29540000     16.39910000     -0.04489500      0.00253679      0.02493340       1
O              25.90300000     14.29670000     16.08130000      0.08449490     -0.02642150     -0.03088690       8
H              24.43450000     14.05410000     16.83010000     -0.09391780     -0.04168980      0.06318120       1
H              25.44810000     15.90570000     15.64990000      0.00610618      0.07050330     -0.02951390       1
O               2.73634000     21.71210000     23.05940000     -0.02103330      0.10329100      0.05124540       8
H               3.63142000     21.24380000     21.72880000      0.04583770     -0.04335590     -0.07651520       1
H               1.88995000     20.45960000     23.85010000     -0.02282180     -0.06196430      0.02355070       1
O              11.29690000      4.34530000     15.58400000     -0.02752310      0.04891390     -0.11659700       8
H              12.24880000      4.26103000     16.97490000      0.05627780     -0.00080637      0.07255200       1
H              12.11300000      5.69231000     14.37300000     -0.02973540     -0.04865150      0.04374470       1
O              17.76660000     20.22500000      1.04254000     -0.04163810      0.14953100      0.05373430       8
H              15.69120000     21.27490000      2.11724000      0.06556920     -0.03552070     -0.02931990       1
H              17.18990000     18.68010000      0.89318600     -0.03723260     -0.10878400     -0.01510570       1
O              19.47740000      8.46912000      9.20799000     -0.12574300      0.04686160      0.00869512       8
H              20.94820000      8.75179000      8.47885000      0.10343700      0.01098280     -0.04143230       1
H              18.46790000      9.98888000      8.37203000      0.02310710     -0.05989720      0.03220320       1
O              25.62450000      8.97616000     13.64310000      0.02985320     -0.04433820     -0.04329810       8
H              25.42140000     10.54130000     14.24050000      0.00752388      0.09589960      0.02263790       1
H              24.31340000      8.24848000     14.51070000     -0.03685850     -0.04360030      0.01748030       1
O              10.13300000      3.80229000      6.79539000     -0.03764970     -0.02760410     -0.01630140       8
H               9.68576000      2.28105000      5.75414000      0.02003150      0.01919150      0.01245390       1
H               8.32779000      4.28041000      7.01744000      0.02228450      0.00923806      0.00241906       1
O              16.52680000     20.00860000     20.86940000     -0.00261920     -0.01927350     -0.05642140       8
H              16.50850000     21.51960000     21.76710000     -0.00319619      0.01255240      0.03314070       1
H              16.77250000     18.50150000     21.79450000      0.00448609     -0.00021254      0.02402900       1
O              14.35310000      3.61446000     20.20400000     -0.02347700     -0.02910710     -0.10731800       8
H              13.73200000      2.21574000     21.01480000     -0.01565630     -0.04841180      0.02121210       1
H              14.88390000      4.59195000     21.43290000      0.03918710      0.07076910      0.08163570       1
O               5.29753000     13.81390000     21.67400000     -0.09294600      0.03070960     -0.03681850       8
H               4.71607000     15.23640000     20.51030000      0.01189270     -0.03070860      0.03007410       1
H               6.97925000     14.04320000     21.81150000      0.07675930      0.00295114      0.01188280       1
O               7.50611000      3.34133000     24.35770000      0.11188500     -0.00287437     -0.05900430       8
H               6.07588000      3.42543000     25.22290000     -0.09033660      0.02215800      0.03581680       1
H               7.66997000      4.48944000     22.88800000     -0.02415190     -0.01848120      0.02587190       1
O               6.81944000     22.61630000      9.95147000      0.01275940     -0.04731190     -0.07977720       8
H               8.13581000     21.87200000     10.81500000      0.03751020     -0.02829330      0.01331690       1
H               6.27350000     23.60850000     11.18230000     -0.04301440      0.07628860      0.06450190       1
O               1.13926000      1.68942000     22.66740000     -0.01608910      0.00441820      0.01019010       8
H               1.58971000      0.01114900     23.04370000     -0.01115490     -0.03602650      0.02484450       1
H               2.34113000      1.73783000     21.39030000      0.02246680      0.02906110     -0.03442560       1
O              10.81920000      8.08903000      0.08476200      0.06215250      0.07388100     -0.01315400       8
H               9.90742000      6.67481000      0.27078100     -0.05274550     -0.06067600      0.01501820       1
H              10.07890000      9.61344000      0.79427200     -0.00664815     -0.01330610     -0.00356692       1
O               6.50244000      0.40628600     13.98650000     -0.08716800      0.03508970     -0.03960940       8
H               8.04763000      0.29575900     14.64890000      0.08141240     -0.00007838      0.03698390       1
H               6.13292000      2.24649000     13.72010000      0.00724653     -0.03112020      0.00629044       1
O              19.76400000     22.15240000     16.96900000      0.01586870      0.10846600      0.04596640       8
H              18.47480000     21.20540000     17.71290000     -0.02814370     -0.02344090      0.01997580       1
H              19.67920000     23.91980000     18.31360000      0.00839209     -0.08778050     -0.06716730       1
O               1.31943000      8.61758000      8.26596000      0.02644430     -0.07397440     -0.07568980       8
H               0.97794900      8.81388000      9.89195000     -0.02205630      0.02170250      0.09455050       1
H               1.29033000     10.05790000      7.32947000     -0.00778992      0.05363360     -0.01976590       1
O              17.56670000     19.61590000     11.20630000     -0.01343560      0.06286780      0.04007330       8
H              15.88790000     18.89660000     10.73430000      0.01658270      0.02058180      0.00779144       1
H              17.32080000     21.39540000     12.25550000      0.00413836     -0.08229840     -0.04689940       1
O              22.51100000      8.30988000      1.44428000     -0.06225360     -0.04643580      0.00562638       8
H              23.73560000      8.21341000      2.73349000      0.01700030      0.00224332      0.01225840       1
H              21.27540000      6.84261000      1.96497000      0.04330850      0.04501030     -0.02120310       1
O              21.89560000      4.85383000     15.61120000      0.02035410     -0.01318420     -0.01676030       8
H              20.22840000      4.91358000     15.09290000     -0.04429080     -0.01641870     -0.03721920       1
H              21.50670000      5.95568000     16.91070000      0.01903780      0.02658530      0.05690550       1
O              18.59920000     12.44140000      2.06396000      0.02419090      0.06267670     -0.05193750       8
H              17.51370000     12.54280000      3.36890000     -0.04932400      0.00278120      0.05887490       1
H              19.13590000     10.82120000      2.04482000      0.02679380     -0.06462150     -0.00504198       1
O              22.49140000      2.85618000      1.78841000      0.00531383     -0.02436300     -0.07358590       8
H              23.89540000      1.81399000      1.12112000     -0.03430170     -0.00484986     -0.02959870       1
H              23.47220000      2.91657000      3.16288000      0.03138420      0.02333380      0.10824400       1
O               0.64783300     20.06050000      4.15227000     -0.03923430      0.08144880      0.01549370       8
H              -0.24011800     21.72980000      3.50562000      0.02775720     -0.05816280      0.02594770       1
H               1.09631000     19.31770000      2.64316000      0.00685369     -0.03130090     -0.04331380       1
O              11.61670000      8.33452000     10.80670000     -0.00909456     -0.05290310     -0.00855040       8
H              11.53640000      7.78476000      9.05631000     -0.01569610     -0.05873210      0.00933361       1
H              11.99370000      9.74125000      9.91865000      0.02335260      0.10940100      0.00246895       1
O              11.60800000     20.23840000     18.16280000     -0.05521840      0.03738410     -0.02941290       8
H              10.51990000     21.54740000     18.98020000      0.01693270     -0.01734660     -0.01593790       1
H              12.50540000     19.52030000     19.45540000      0.03585790     -0.01789810      0.03828600       1
O               5.14414000     18.84260000     18.77930000      0.00012782     -0.01271170      0.01929840       8
H               4.30469000     19.47400000     17.34950000     -0.02267590      0.01274840     -0.01397930       1
H               6.79202000     18.63550000     18.14020000      0.02462210     -0.00154961      0.00035011       1
O               8.83117000     24.88750000      3.52984000      0.06968860     -0.01888130      0.11518800       8
H               8.46146000     25.54530000      2.07943000     -0.04023050      0.04526560     -0.11819200       1
H               7.86463000     23.51150000      4.05940000     -0.03493520     -0.02757970     -0.00273700       1
O              17.30670000      2.21334000      3.27420000     -0.07542520      0.05531870     -0.00980022       8
H              16.65800000      1.00763000      4.36794000     -0.02013740     -0.02228010      0.02693600       1
H              18.87510000      1.75653000      2.90861000      0.09471600     -0.02505840     -0.02538070       1
O               2.69643000     22.77550000     16.10390000      0.07300830     -0.00115556     -0.04105140       8
H               4.18306000     23.40060000     14.91380000     -0.03930200     -0.01816920      0.04452780       1
H               1.62997000     24.11990000     15.69710000     -0.03337300      0.02761300     -0.00450107       1
O              22.89280000     23.65790000      9.12433000      0.06308700      0.04070450      0.01312510       8
H              23.31730000     21.95070000      9.12847000      0.01668420     -0.03978680      0.00026437       1
H              21.24410000     23.60520000      8.74496000     -0.07895580      0.00470686     -0.01845710       1
O              13.46690000     22.00870000      4.02345000      0.09965760     -0.01219150      0.04793410       8
H              11.88750000     22.55860000      3.58735000     -0.05055220      0.03093280     -0.00914860       1
H              14.32750000     23.06070000      5.52728000     -0.03305420     -0.01789490     -0.04242410       1
O               2.92859000      5.90245000      1.04750000     -0.11392100     -0.00742329     -0.02362990       8
H               2.47684000      7.64745000      0.33876400      0.01247640     -0.03301940      0.00857419       1
H               0.68482700      4.91453000      0.74520700      0.10377500      0.04367060      0.01093210       1
O              11.49530000     12.83270000     21.10460000      0.03065310     -0.09397590      0.13375500       8
H              11.56990000     13.01200000     19.45690000      0.00613655      0.00707676     -0.11662200       1
H              12.21150000     10.86010000     21.41010000     -0.03724100      0.08957340     -0.01436010       1
O               5.95471000     20.56080000      5.10675000      0.01507620     -0.00381848     -0.01525040       8
H               4.23443000     19.84830000      4.67413000      0.02866470      0.02884370      0.03749710       1
H               6.54224000     21.17310000      6.78439000     -0.04341200     -0.01879260     -0.01685800       1
O               1.45256000     10.57100000     23.97670000      0.12546200      0.01961660     -0.00095310       8
H               2.70444000     11.94790000     23.20510000     -0.05192120     -0.04968470      0.02036330       1
H              -0.20330300     10.81810000     23.68820000     -0.06678610      0.02603730     -0.01753780       1
O               0.60713200      2.49046000      6.08966000     -0.07659470      0.03950250     -0.08688260       8
H               0.47808500      1.26845000      7.19910000     -0.02498450     -0.09180420      0.07299880       1
H               2.12185000      3.09778000      6.44826000      0.09385670      0.04749720      0.01078170       1
O              25.11870000      0.83924800     13.10790000     -0.02809650      0.09613920      0.13877500       8
H              23.24960000      1.83966000     14.44440000      0.08707430     -0.03828050     -0.05557680       1
H              24.23520000      0.05445800     11.91920000     -0.05356830     -0.05285310     -0.07640860       1
O               1.39072000     16.62370000     25.44080000      0.06873370     -0.03439540     -0.02635660       8
H              -0.06922700     16.24780000     24.35280000      0.01176120     -0.01077010      0.00911179       1
H               3.02213000     15.45990000     24.85300000     -0.07645570      0.05164870      0.01956210       1
O               3.14061000     18.45820000     10.44630000     -0.06607210     -0.06856870     -0.05196910       8
H               4.08001000     19.42500000     11.47600000      0.02646690      0.04429140      0.05092260       1
H               1.34885000     18.04470000     10.91300000      0.04114100      0.01917730     -0.00227537       1
O              18.48420000      9.09070000     21.02250000     -0.11049100     -0.01909460      0.02788750       8
H              17.63910000      7.78087000     22.31080000      0.00659813      0.04792530     -0.04200250       1
H              19.97980000      8.48444000     21.48030000      0.10403900     -0.02431280      0.00790380       1
O              22.54190000     14.69550000     23.84690000      0.06273990      0.01705840     -0.03474580       8
H              21.51690000     14.56190000     22.43280000     -0.02328710      0.00052301     -0.02985820       1
H              21.64550000     14.32780000     25.24170000     -0.04371070     -0.01661150      0.06156610       1
O               9.45338000     18.22910000     13.19390000     -0.00771161      0.01059780     -0.01416250       8
H               8.88928000     17.04370000     14.42860000     -0.00372455     -0.00858109      0.00204690       1
H              10.98800000     18.90410000     13.81180000      0.00985001      0.00463129      0.02109040       1
