192
TotEnergy=-1103.39084000 cutoff=-1.00000000 nneightol=1.20000000 pbc="T T T" Lattice="24.39735000       0.00000000       0.00000000      -0.00000100      24.39735000       0.00000000      -0.00000100      -0.00000100      24.39735000" Properties=species:S:1:pos:R:3:force:R:3:Z:I:1
O              23.94600000     -4.95155000    -28.47900000      0.01690810     -0.03570850      0.04148820       8
H              22.21070000     -4.99217000    -28.91120000     -0.01278060     -0.00200471     -0.00391793       1
H              24.17210000     -6.46514000    -27.24930000     -0.00205554      0.03943680     -0.03710160       1
O              50.85750000     47.42790000      4.40088000     -0.04305300      0.03775710     -0.09054240       8
H              51.55250000     46.03670000      5.11374000      0.03108430     -0.05396000      0.02608820       1
H              50.64360000     47.02340000      2.39860000      0.01471700      0.02023030      0.06755500       1
O              10.38360000      1.86417000     10.47040000      0.07778010      0.04313600      0.06710410       8
H              11.91790000      2.72614000     11.68500000     -0.06772820     -0.01665760     -0.05787670       1
H              10.74600000      0.21311800     11.14770000     -0.01449780     -0.01789500     -0.00943954       1
O              -5.57933000     -9.81745000      0.95436800     -0.04243760      0.04233270      0.03357410       8
H              -5.07184000     -9.76769000     -0.77001300      0.01080270     -0.00568235     -0.02095080       1
H              -6.81647000     -8.29493000      1.22322000      0.03568530     -0.03961790     -0.00449622       1
O               8.43785000     30.20260000     20.22790000      0.01150770     -0.00877931     -0.02924430       8
H               9.14392000     31.41980000     21.37970000      0.00007308      0.00359800     -0.00531276       1
H               9.48890000     30.15530000     18.65770000     -0.01300240      0.00481066      0.03418670       1
O              -3.68662000     11.32350000     12.67750000     -0.00579655     -0.00359299     -0.05205580       8
H              -4.98056000     10.24600000     11.63380000      0.03491130      0.02928280      0.01563480       1
H              -2.64861000     12.20260000     11.31020000     -0.02422840     -0.01789900      0.03333700       1
O              46.12850000     24.90460000     12.63790000     -0.00274540     -0.01528610     -0.01463570       8
H              47.85980000     25.35790000     12.83750000      0.01178500      0.01164170      0.02287690       1
H              46.09890000     24.82100000     10.79750000     -0.01836640     -0.00372941     -0.00740173       1
O               1.13871000    -28.61220000     11.39420000     -0.03218790     -0.01635690     -0.02492000       8
H               0.64010000    -30.38890000     10.70840000      0.00251065      0.04598400      0.01943040       1
H              -0.25531100    -27.37490000     11.06100000      0.02261220     -0.03164100      0.00103000       1
O              30.46940000    -34.51250000     18.76240000      0.05344740     -0.01445130      0.03489320       8
H              31.13990000    -32.99980000     17.88780000     -0.00077651     -0.01879810      0.01547670       1
H              31.93660000    -35.30850000     19.96190000     -0.05386370      0.03299960     -0.05186980       1
O               8.81794000    -27.43110000    -27.89590000     -0.00881160     -0.01426330      0.04235660       8
H              10.73410000    -27.41660000    -27.39690000     -0.03723660      0.01288390     -0.00479242       1
H               7.89163000    -28.24710000    -26.42500000      0.02024860      0.00843317     -0.03052430       1
O             -10.94240000      2.77543000      6.09848000      0.01635010      0.00553208      0.00488971       8
H             -12.03310000      2.99455000      7.47020000     -0.00721062     -0.01538590      0.05397020       1
H             -12.06230000      3.63440000      5.06230000     -0.01506340      0.01133420     -0.05922980       1
O             -12.01880000     29.70390000     49.89780000      0.05865500      0.02437620     -0.00873473       8
H             -13.24690000     28.62590000     49.34400000     -0.05319340     -0.03387170     -0.00228247       1
H             -10.71610000     29.18410000     48.67560000      0.00234495      0.01749840      0.01160410       1
O              14.86100000    -28.61320000    -15.03990000     -0.03649160      0.04648210      0.05042100       8
H              15.15170000    -30.35660000    -15.41470000     -0.01241230     -0.01562970      0.00429346       1
H              13.16390000    -28.11580000    -13.90070000      0.04824260     -0.03518200     -0.04571600       1
O              24.43280000     14.87940000     34.83020000     -0.03451100      0.00868307     -0.03935530       8
H              25.19790000     14.40170000     33.23000000     -0.00972654      0.00145583     -0.01623160       1
H              25.85500000     14.72780000     35.78900000      0.04638730     -0.00487331      0.05447230       1
O               0.79800400      4.11110000      0.55698300     -0.03475940     -0.01486580     -0.06023910       8
H               1.40722000      4.64440000      2.08663000      0.02707410      0.00365958      0.04182040       1
H               1.15205000      2.34487000      0.06488800      0.00353643      0.00737274      0.02227210       1
O             -27.19260000     23.97780000     31.89460000     -0.01190040     -0.00409469     -0.03229640       8
H             -25.44740000     23.82430000     31.18510000     -0.03742800     -0.00015217     -0.00665073       1
H             -28.66450000     23.82690000     30.55800000      0.04768100      0.00304769      0.03779500       1
O             -32.80000000     10.23090000     25.50990000      0.01181460      0.00908632     -0.02574320       8
H             -33.23570000      9.70134000     23.76450000      0.00785226      0.00737899      0.02595010       1
H             -31.42960000     11.54200000     25.32520000     -0.02193840     -0.01447280     -0.00019978       1
O             -17.06450000     62.97530000    -19.51420000      0.00711455     -0.02576010     -0.06775670       8
H             -17.12560000     63.20930000    -17.74120000      0.00599752     -0.01643960      0.02758670       1
H             -16.75490000     61.22830000    -20.29340000     -0.01619950      0.04241050      0.04206240       1
O              66.38410000     20.93120000     38.56700000      0.08056840      0.02687170      0.03900660       8
H              68.11270000     21.88190000     38.52540000     -0.05287910     -0.02105450     -0.00658438       1
H              65.66690000     20.87590000     36.95590000     -0.01524940     -0.00167385     -0.04588540       1
O              57.57880000    -22.22160000      2.51816000     -0.00059710     -0.00518120      0.00208324       8
H              56.27000000    -21.62260000      3.65374000     -0.00856450     -0.00383483     -0.01039740       1
H              56.76830000    -22.82790000      0.99122100     -0.00842759      0.00501454      0.00923446       1
O              30.45150000     20.24170000    -15.28840000      0.05761310      0.02697420     -0.05445030       8
H              31.26510000     18.81800000    -14.64100000      0.02922620     -0.04913030     -0.00226882       1
H              29.09850000     20.10770000    -14.30080000     -0.09091970      0.01313120      0.04831030       1
O             -11.28130000      6.43178000     60.08200000     -0.08295910     -0.06553540      0.04812150       8
H             -12.89280000      7.07200000     59.50010000      0.00781494      0.01308580     -0.01159030       1
H              -9.82408000      7.18497000     59.72580000      0.07536660      0.05111250     -0.03613450       1
O               5.87538000      1.43789000     -2.36138000      0.00403606     -0.19940400      0.06395580       8
H               7.28988000     -0.05151600     -2.81614000     -0.04831260      0.04377870      0.00765418       1
H               6.39633000      2.76239000     -3.09927000      0.05685790      0.14795600     -0.08144110       1
O              44.42650000      4.96971000     23.84660000     -0.21212600     -0.00033272     -0.03879930       8
H              43.08280000      4.79357000     25.24440000      0.04828790      0.01334410     -0.02637940       1
H              45.90250000      4.93681000     24.45240000      0.16897800     -0.01250430      0.07772880       1
O              -3.98198000     62.36360000     30.66750000      0.03517500      0.01493080     -0.07705560       8
H              -4.31653000     62.08130000     28.66260000      0.01056990      0.01901100      0.07087110       1
H              -2.46138000     63.57500000     30.62680000     -0.04064830     -0.03241080     -0.00149097       1
O               7.60081000     39.64560000     10.11030000      0.03773150     -0.00440776      0.00046428       8
H               6.23873000     38.95130000     11.34480000      0.04532640      0.00051901     -0.01565870       1
H               9.50791000     39.10350000     10.33050000     -0.07070350      0.00650597      0.00830011       1
O             -16.32790000     19.52530000     16.17690000      0.03485230     -0.04379670     -0.05847370       8
H             -17.81100000     20.32870000     15.73490000     -0.04450920      0.02139340      0.00473726       1
H             -15.85100000     19.89250000     17.80500000      0.00562425      0.02341090      0.05459530       1
O              33.76600000     33.04900000     52.55950000     -0.01335780     -0.01872180     -0.00460881       8
H              35.05780000     32.08900000     51.69770000      0.01134550      0.00416098     -0.00323816       1
H              32.27630000     32.06340000     52.06870000      0.00379078      0.01929450      0.00660024       1
O              14.51010000     34.24710000     19.64540000     -0.00275754     -0.10648400      0.02034530       8
H              14.72640000     35.64970000     18.63770000     -0.00005797      0.05579130     -0.03921840       1
H              14.06320000     32.69700000     18.51330000      0.00577080      0.03238130      0.02708930       1
O               1.91606000    -25.03810000     23.64450000     -0.05150330     -0.03572890     -0.05135060       8
H               0.45516300    -26.10960000     22.72190000      0.06142600      0.03979230      0.02682330       1
H               3.21179000    -24.38410000     22.34550000     -0.01654670     -0.01364510      0.02481420       1
O               1.60087000     14.29200000      5.46830000      0.02485700     -0.01992600     -0.02532750       8
H               1.65587000     12.59310000      4.54982000      0.01125080      0.04465370      0.02098130       1
H               3.28145000     15.10700000      5.07029000     -0.03083290     -0.02403740      0.00454446       1
O               1.78278000      2.39081000     14.70000000     -0.05521280      0.19515600     -0.09832480       8
H               2.28135000      1.17151000     15.55920000      0.06817210     -0.16618100      0.11859600       1
H               1.83799000      3.93854000     15.79330000     -0.01140410     -0.03288000     -0.01855790       1
O             -35.41250000     54.13950000    -31.69950000     -0.02951640      0.05056890     -0.04074970       8
H             -34.96690000     54.86340000    -33.46640000      0.00426530     -0.04650610      0.05035360       1
H             -34.65000000     53.01620000    -30.49080000      0.02682070      0.00123323     -0.01795910       1
O               4.07755000     52.29560000    -19.55090000      0.02086010      0.05500620      0.06246550       8
H               4.18551000     53.00860000    -17.68950000     -0.00605239     -0.03227860     -0.06057730       1
H               2.97866000     50.88670000    -19.52250000     -0.00649847     -0.02437610      0.00568075       1
O             -35.74210000     38.41840000      3.44718000     -0.04041480      0.01197090      0.03110070       8
H             -34.96830000     37.23320000      2.40703000      0.02168210     -0.03116970     -0.02244140       1
H             -37.18620000     37.50880000      4.20440000      0.01689510      0.01777340     -0.00988751       1
O              23.01440000     31.68310000     15.07850000     -0.00084954      0.01010740     -0.01046300       8
H              22.42920000     32.00610000     16.76400000     -0.00135866     -0.00407352      0.00650107       1
H              22.56700000     33.24490000     14.15930000     -0.00079100     -0.00569683      0.00394929       1
O             -15.30530000    -15.24290000      9.00711000     -0.00022095     -0.01636820     -0.06203710       8
H             -15.24220000    -15.54070000      7.03898000      0.01107930      0.00821079      0.04979110       1
H             -17.12220000    -15.16360000      9.13956000     -0.00179557      0.00301435      0.01265430       1
O             -48.23810000      5.18658000     19.78540000      0.05702920      0.08975690     -0.08781840       8
H             -47.91100000      4.58706000     21.34940000      0.01591910     -0.02657630      0.07110520       1
H             -46.68260000      6.56122000     19.51330000     -0.06680020     -0.06100930      0.01366920       1
O             -20.45570000    -15.28700000     34.54210000     -0.07057800     -0.07042770      0.00125444       8
H             -20.46800000    -17.12700000     35.25730000      0.02469570      0.04242830     -0.01061580       1
H             -22.18130000    -15.65970000     33.71120000      0.03785810      0.02808890      0.00403175       1
O              15.74050000     15.04430000     32.31350000      0.12008300      0.03058530      0.20187400       8
H              17.53870000     14.64400000     32.00480000     -0.01092330      0.00297553      0.00264416       1
H              15.05390000     14.80910000     30.93410000     -0.10697600     -0.03371710     -0.20250000       1
O             -21.51760000     -2.91584000     40.51420000     -0.04803130     -0.02268250      0.02292560       8
H             -22.73320000     -3.67564000     42.07540000      0.04580220      0.02481500     -0.07603160       1
H             -22.15120000     -3.26543000     38.68040000      0.00244090     -0.00552707      0.05688710       1
O              42.56860000      8.09169000     34.00540000     -0.00437950     -0.01888760      0.01716780       8
H              42.40540000      7.45611000     32.23740000      0.00452343     -0.00222491      0.02903810       1
H              42.88040000      6.66231000     35.46860000     -0.00797024      0.01474140     -0.05553070       1
O             -10.17100000    -35.10410000     -7.51058000      0.00168815     -0.00732403     -0.05494980       8
H              -8.74082000    -34.02270000     -7.96201000      0.00263809     -0.00237794      0.01098050       1
H             -10.37960000    -35.88550000     -9.26547000     -0.01078250      0.01611950      0.03306140       1
O              53.80870000    -20.51410000    -13.75990000     -0.00724601     -0.00259935      0.02770680       8
H              55.60840000    -20.87250000    -13.50730000     -0.01209940     -0.00077922     -0.00222501       1
H              52.89190000    -21.04330000    -12.17500000      0.01443180      0.00074580     -0.02628220       1
O              16.24920000     -1.30992000      5.20294000     -0.03137970      0.03483620      0.03797940       8
H              15.01470000      0.29919200      5.68458000      0.04191520     -0.05767280     -0.02165390       1
H              16.01450000     -2.45356000      6.70923000     -0.00248222      0.01841140     -0.02298310       1
O             -35.49360000     -2.20226000     46.28760000      0.02559060     -0.05550690      0.07830310       8
H             -34.92060000     -3.02989000     44.79390000      0.01197500     -0.00394788     -0.03637430       1
H             -35.05340000     -3.73229000     47.55890000     -0.01158100      0.05986210     -0.03107950       1
O               4.33266000    -11.11130000    -11.35840000     -0.06549610      0.00145016     -0.12407100       8
H               4.83391000    -11.46210000     -9.81597000      0.03142190     -0.02867820      0.10604000       1
H               3.54516000    -12.64180000    -12.29340000      0.03267510      0.02136780      0.02800940       1
O              18.56560000     15.97990000     15.86890000     -0.04541230      0.08407980      0.05385230       8
H              18.40050000     17.88570000     15.51560000      0.01211110     -0.05428340     -0.00754257       1
H              19.53720000     15.10610000     14.76900000      0.04118710     -0.02978930     -0.05239380       1
O              10.34470000     21.11520000    -12.69100000      0.04170700      0.01109550      0.03315250       8
H               9.89545000     21.00440000    -10.87510000     -0.00306701     -0.00985843     -0.01737230       1
H               8.90259000     21.15610000    -13.72490000     -0.02831620      0.00162703     -0.00955521       1
O              23.91260000     57.24710000     30.93800000     -0.02599360     -0.01598140      0.01430680       8
H              23.04180000     58.77520000     30.45600000     -0.00041671      0.00043021      0.00377721       1
H              22.50750000     56.20210000     31.62560000      0.02266480      0.01523990     -0.01123750       1
O              -6.94657000      6.08836000      4.58562000     -0.02571780      0.08795700     -0.02129570       8
H              -7.67163000      7.92498000      4.00952000      0.03711550     -0.06265690      0.00572088       1
H              -8.57919000      5.43432000      4.95579000     -0.00847800     -0.02497420      0.00873220       1
O              14.28000000    -28.60840000     17.60210000      0.07054840      0.03976670     -0.02888460       8
H              13.60500000    -30.10480000     17.04180000     -0.02577660     -0.04431740     -0.01088760       1
H              15.90420000    -28.36480000     16.29540000     -0.05630570      0.00469988      0.04099430       1
O               1.22222000     13.90760000     46.11770000     -0.00659470      0.00872491     -0.02897610       8
H              -0.36306100     13.70350000     45.02240000      0.03624120      0.01207120      0.01908670       1
H               2.78089000     14.51920000     45.19440000     -0.03267710     -0.01799560      0.00607207       1
O              39.59460000     43.08480000      2.09854000      0.10347100      0.02264730     -0.09809950       8
H              39.60960000     44.71860000      2.65212000     -0.00657578      0.05222990      0.03869950       1
H              38.50340000     42.00290000      2.65885000     -0.09800280     -0.07438790      0.05718840       1
O              20.40850000     13.57280000    -28.25060000      0.03633470     -0.07784070      0.01886630       8
H              20.31320000     11.52000000    -28.91610000     -0.00722968      0.05215060      0.02998880       1
H              19.54250000     14.63000000    -29.30640000     -0.02626460      0.02625330     -0.04463620       1
O             -17.75650000     42.91520000      1.17622000      0.04438690      0.08317840      0.02596430       8
H             -17.43460000     41.29740000      1.70502000      0.00332279     -0.05559490      0.01418190       1
H             -16.43640000     43.84740000      2.40921000     -0.04509260     -0.02116910     -0.03999410       1
O               9.87125000    -27.29280000     29.08870000      0.05256000     -0.01701280     -0.07609560       8
H               9.10310000    -27.76740000     30.48950000     -0.04513330     -0.03897040      0.08885750       1
H               9.28525000    -25.66830000     28.90440000     -0.00919370      0.05301900     -0.01730510       1
O               4.20798000     34.01860000      3.78057000      0.03852740      0.03566320     -0.05026840       8
H               3.22004000     33.17090000      4.83124000     -0.04534200     -0.04787620      0.09123470       1
H               3.18869000     33.45900000      2.40120000      0.00405008      0.00958114     -0.04397090       1
O             -11.64730000    -11.79300000     11.60620000      0.05089930     -0.06985810     -0.04548290       8
H             -11.90440000    -13.74740000     11.27730000     -0.00322805      0.07116310      0.01435910       1
H             -10.07690000    -11.57530000     10.38160000     -0.04891920      0.00884757      0.03476390       1
O              -5.47611000      4.79043000     12.88570000      0.05646550      0.02229810      0.04682120       8
H              -3.74230000      5.43369000     13.68420000     -0.04402350      0.00018497     -0.01594930       1
H              -5.06832000      3.05459000     13.20330000     -0.00692159     -0.01664690     -0.01399640       1
O              25.90020000    -15.18730000     -0.52762700     -0.01556610      0.03930880     -0.03683820       8
H              25.73240000    -13.46980000     -1.54337000      0.00815873     -0.04108370      0.03095950       1
H              24.98550000    -16.45080000     -1.48999000      0.00666551      0.00887449      0.01018280       1
O              19.73350000      8.76937000     44.55330000     -0.03469900      0.02506860     -0.05460210       8
H              20.21350000      8.00307000     46.09770000     -0.01315870     -0.01613180      0.01615460       1
H              17.81250000      8.81453000     44.08960000      0.04557020     -0.00672982      0.03118350       1
O              15.66770000     27.98880000     45.94490000     -0.00118442     -0.06780390      0.01719980       8
H              17.40030000     27.63970000     46.58730000     -0.01330300      0.01742920     -0.01497870       1
H              14.97250000     26.18680000     46.08690000      0.00855279      0.04024170     -0.00468089       1
O             -14.21770000     10.72540000     22.26420000      0.01714080      0.02996760      0.01759120       8
H             -12.58160000     10.28010000     21.43790000     -0.01520380      0.01294340      0.00709311       1
H             -13.82960000     12.15960000     23.45550000     -0.00615418     -0.03616150     -0.02541980       1
