192
TotEnergy=-1102.80782000 cutoff=-1.00000000 nneightol=1.20000000 pbc="T T T" Lattice="24.13067000       0.00000000       0.00000000      -0.00000100      24.13067000       0.00000000      -0.00000100      -0.00000100      24.13067000" Properties=species:S:1:pos:R:3:force:R:3:Z:I:1
O              20.75750000     20.22030000      3.83114000     -0.18675700      0.06967960      0.00884158       8
H              22.16730000     19.47240000      3.71847000      0.15531100     -0.08926440     -0.01216090       1
H              19.29540000     18.98030000      3.35930000      0.03570330      0.02215540      0.00114332       1
O              15.25690000      2.86601000     17.82970000     -0.06102470     -0.00411852     -0.01280410       8
H              16.03000000      1.59929000     16.87180000      0.02385730     -0.02387620     -0.01839050       1
H              16.48440000      3.66259000     18.73930000      0.04131540      0.02690510      0.02969510       1
O               9.27190000     21.41980000     16.13840000     -0.03956540     -0.15381900     -0.10866700       8
H               9.40116000     22.70770000     17.03490000      0.00104078      0.17459000      0.11920800       1
H              10.93960000     20.88440000     16.10120000      0.04210300     -0.02267630     -0.00806499       1
O              13.56900000     15.85440000     10.05210000      0.05423670     -0.01373350     -0.00456354       8
H              15.00280000     14.52550000      9.52558000     -0.03802310      0.05554550      0.01349890       1
H              13.98970000     17.78440000      9.87997000     -0.00442524     -0.04335270      0.00051327       1
O              16.34870000     11.22710000      9.11365000      0.02228390      0.07616440      0.09807450       8
H              14.85600000     10.52000000      9.64147000     -0.05097620     -0.02391210      0.02776510       1
H              16.54800000     10.50770000      7.64651000      0.02231930     -0.05483880     -0.12139000       1
O               2.78984000     21.00150000     22.09440000      0.00393944      0.01904380      0.00396581       8
H               2.51136000     19.42430000     21.19800000      0.01100560      0.00382467      0.01013840       1
H               4.21104000     20.96020000     23.25050000     -0.00793212     -0.01704110     -0.01512820       1
O               4.66459000     11.66910000      9.87362000     -0.00328241      0.03103510      0.07006420       8
H               4.64527000     13.48670000     11.24290000     -0.00094965     -0.07387230     -0.05705500       1
H               4.54249000     10.05340000     10.93720000     -0.00005560      0.04869010     -0.01956490       1
O              10.06050000      2.78822000      0.99902800     -0.05087680      0.01784540      0.02283920       8
H              11.25990000      1.93713000      2.10650000     -0.00948121     -0.00452816      0.00755900       1
H               8.33434000      3.14783000      1.86344000      0.06312290     -0.01441930     -0.01585370       1
O              21.28060000      5.42997000     15.49770000      0.04907690     -0.00820651      0.04279830       8
H              22.21490000      6.58303000     16.73650000     -0.02244220     -0.01238260     -0.02923390       1
H              22.24590000      3.83541000     15.95830000     -0.02965190      0.02090460     -0.01034840       1
O               4.53266000     -0.10900000      3.71633000      0.02374270     -0.02445830      0.04250130       8
H               5.46705000     23.52730000      5.48468000     -0.03166970      0.01195120     -0.07887070       1
H               4.63468000     22.57220000      2.54279000      0.00504589      0.01414490      0.02957980       1
O              21.67600000     17.02940000     11.12560000     -0.15150400     -0.07018450      0.00578471       8
H              21.24090000     14.93840000     10.94830000      0.00773247      0.06666080      0.01434570       1
H              23.30100000     16.92980000     11.04660000      0.14471500     -0.00056307     -0.01188340       1
O               3.07383000      4.53343000     10.91830000      0.00625981     -0.05923550      0.00507770       8
H               3.58382000      5.36806000     12.45520000     -0.00220871      0.00915263      0.00220809       1
H               3.07956000      2.60917000     11.47580000     -0.00596262      0.05519100     -0.01453930       1
O              15.40130000     23.40360000     22.57040000      0.06637090      0.05609650      0.02844670       8
H              13.73440000     -0.26408100     21.97540000     -0.01048380      0.00866106     -0.00379633       1
H              16.78980000      0.97063800     22.79100000     -0.04429740     -0.04705510     -0.01256610       1
O              10.98590000      0.78993800     20.89470000      0.05297850     -0.06241470     -0.13163100       8
H              12.24820000      1.58719000     19.69590000     -0.03214360     -0.00099902      0.03058870       1
H              10.56930000      1.71055000     22.24220000     -0.02380540      0.06550210      0.08178080       1
O              21.09140000      5.83907000      4.97507000     -0.01248210      0.00337855     -0.06976340       8
H              21.01060000      4.04002000      4.91569000      0.00217440     -0.01028440      0.00983761       1
H              21.31410000      6.54977000      6.53238000      0.00943335      0.00868613      0.06078550       1
O               7.97557000      8.40528000     18.03500000     -0.01093400     -0.00739359      0.01929540       8
H               8.47174000      9.85812000     17.18240000     -0.00945103      0.06068500     -0.00892013       1
H               9.27976000      7.55632000     17.20510000      0.02575200     -0.05585290     -0.00323184       1
O              17.85460000     23.60460000      6.37085000      0.07016160     -0.02079470     -0.06498050       8
H              17.21180000     23.00990000      7.83529000     -0.02997240     -0.02233810      0.06424580       1
H              19.21980000     22.20170000      5.91094000     -0.04148220      0.04018440      0.00977485       1
O              12.83390000      1.40876000     11.94490000     -0.13320600     -0.09938700     -0.22337200       8
H              14.20580000      1.35380000     12.56910000      0.26956400      0.00469302      0.12677700       1
H              11.75570000      2.22620000     12.77010000     -0.12624800      0.09905270      0.10445300       1
O              22.14880000      1.06834000      2.60194000     -0.29509200     -0.02366400      0.04649490       8
H              21.52360000     23.41880000      3.27333000      0.01162510      0.04546220     -0.02472270       1
H              -0.47471200      0.89376200      2.49314000      0.28110000     -0.02611480     -0.02437640       1
O               5.96940000     14.81390000     19.02330000      0.23848000     -0.25547100      0.07102790       8
H               4.92892000     15.85820000     18.92750000     -0.25269200      0.25188200     -0.03437090       1
H               5.63691000     14.13390000     20.77530000      0.01694780      0.00383972     -0.03342110       1
O               9.06694000     13.17620000     15.19280000     -0.18072000     -0.08447550     -0.04019910       8
H              10.17210000     14.06690000     15.92540000      0.13013400      0.09421580      0.07529880       1
H               7.45265000     13.62340000     16.32060000      0.04882650     -0.01555590     -0.03311450       1
O               8.46193000     10.01710000      6.51642000     -0.02743030      0.00411401      0.02357580       8
H               9.47620000     11.43330000      6.02713000      0.01156420      0.00964515     -0.00360217       1
H               7.11730000     10.87830000      7.53955000      0.01508080     -0.01547330     -0.01178080       1
O               7.11307000      4.78392000      6.02121000     -0.03507630     -0.00329492      0.06489910       8
H               7.51355000      6.56579000      6.45513000     -0.00791541     -0.01974860     -0.00988513       1
H               5.99901000      4.14563000      7.58787000      0.03951020      0.02832300     -0.05896490       1
O               3.04272000      0.15893900     13.60020000     -0.08522420      0.04659260      0.00932481       8
H               3.50959000      1.19951000     14.97780000     -0.00669619      0.01335990      0.02113740       1
H               4.45562000     23.44180000     13.32840000      0.08894710     -0.06653730     -0.02810040       1
O              12.70150000     14.84310000      1.68850000     -0.01108980      0.01375040     -0.06355260       8
H              13.16250000     13.06480000      1.61119000     -0.00463766      0.00119873     -0.00674759       1
H              12.22560000     15.37930000     -0.13664100      0.01357020     -0.01529110      0.05189680       1
O               6.84710000     21.13430000     11.62300000     -0.01985770     -0.09415280      0.17520100       8
H               7.09522000     21.98450000     10.26380000      0.04600290      0.07567330     -0.11573800       1
H               8.09738000     21.06390000     13.17900000     -0.02917910      0.01815670     -0.05624610       1
O              23.60090000      9.47886000     17.95320000      0.03658330     -0.04735310      0.04005840       8
H              22.92560000     10.82570000     17.19640000     -0.03995550      0.06169970     -0.06946710       1
H              23.64400000     10.41520000     19.54610000      0.00675523     -0.02185800      0.02202340       1
O              11.18700000      5.02421000     15.50970000     -0.02889150     -0.02525130      0.01815890       8
H              12.84840000      4.74750000     16.04570000      0.03125660     -0.01955360      0.02982630       1
H              11.59290000      6.25776000     14.37800000     -0.00100285      0.05062940     -0.05508560       1
O              17.97210000     23.43280000     14.72460000     -0.16259000     -0.01919240     -0.02995790       8
H              16.78760000     21.76780000     14.62370000      0.04655630      0.06246230      0.00374760       1
H              19.48790000     22.87780000     15.08350000      0.11551600     -0.03965180      0.02257090       1
O              22.59660000     11.19600000     22.44740000      0.19046800     -0.01468160      0.05656180       8
H              21.03920000     10.88710000     22.22550000     -0.16641400     -0.04139810     -0.01639270       1
H              23.35110000      9.64747000     23.50300000     -0.02556810      0.04442520     -0.02763990       1
O              18.60880000     20.83220000     20.18230000     -0.00760207      0.02182240     -0.01885730       8
H              19.11830000     21.98200000     18.80890000      0.00250625     -0.01759750      0.02148240       1
H              17.41180000     21.92200000     21.21860000      0.01221660     -0.02262600     -0.01292020       1
O              22.72580000      7.15888000     10.19600000      0.05341820      0.02403470     -0.11066000       8
H              22.06060000      6.77870000     11.66840000     -0.04617320     -0.02871370      0.10333400       1
H               0.14120800      6.12776000     10.06330000     -0.00689021      0.00647612      0.00553619       1
O              17.10320000      8.62541000     15.72220000     -0.05843380      0.01317520      0.01027870       8
H              18.39660000      9.76897000     15.58150000      0.02737390      0.06733710     -0.00552587       1
H              18.25950000      7.35280000     15.72990000      0.02892410     -0.08085280     -0.00344021       1
O               8.44104000     21.31530000      6.40037000     -0.07086670     -0.08079860      0.12894100       8
H               8.80124000     21.75640000      4.85945000      0.03446950      0.02915720     -0.12535700       1
H               7.28831000     19.68760000      6.30706000      0.04100080      0.05310710      0.00300667       1
O              17.87060000     16.46120000      1.96191000      0.12658500     -0.01241730     -0.02046930       8
H              16.33260000     16.24700000      1.33126000     -0.09689430     -0.00722821     -0.02352120       1
H              19.00050000     15.87460000      0.37206500     -0.02259610      0.02418360      0.04989660       1
O              12.29950000      3.63230000      6.83029000      0.04506200     -0.01839590      0.03123020       8
H              12.34480000      2.26309000      8.16776000     -0.01297570      0.03785830     -0.03806190       1
H              10.72320000      4.06420000      6.12553000     -0.02918100     -0.01131260      0.00540502       1
O               1.11828000     16.94350000      2.96392000      0.19039100      0.25179500      0.08604120       8
H               2.50098000     16.31900000      4.03468000     -0.01935150      0.01627580     -0.01607620       1
H               0.28638000     15.75010000      2.61749000     -0.17750700     -0.25509800     -0.07676050       1
O              11.22600000      9.46442000     11.31640000     -0.00504627     -0.05038760     -0.07218750       8
H              10.20590000     10.37530000     12.39200000     -0.02914050      0.03132090      0.02652290       1
H              10.06360000      8.93969000      9.77526000      0.03937120      0.02336310      0.04619090       1
O              17.30840000      7.81780000     21.35940000      0.29655400     -0.06815660     -0.20168600       8
H              17.21500000      8.46464000     19.59170000     -0.00381845     -0.01100760      0.02687340       1
H              16.06620000      8.13575000     22.10290000     -0.29154000      0.07665300      0.17210400       1
O              20.89660000     11.86180000     11.83910000      0.01337310     -0.05353770     -0.07664230       8
H              19.16530000     11.16250000     11.02110000      0.05836830      0.02304260      0.02075820       1
H              22.45620000     10.83010000     10.70580000     -0.07307830      0.03241550      0.05026370       1
O              19.51880000     13.35320000     16.90460000     -0.09391590      0.02811080      0.04927060       8
H              19.82180000     14.27920000     15.39630000      0.00338883      0.00624939     -0.01029160       1
H              17.43890000     14.09860000     17.49560000      0.09365460     -0.03473440     -0.03641440       1
O              14.39950000     19.71050000     16.24180000     -0.20795400     -0.03278690     -0.24832700       8
H              14.47810000     18.11230000     15.44910000      0.01022590     -0.01249640      0.00761460       1
H              15.31390000     19.99900000     17.39300000      0.20032500      0.04275180      0.24697100       1
O               7.73673000     19.66370000      1.20808000     -0.04144190     -0.02196970      0.04332670       8
H               9.09107000     19.11930000      0.20962500      0.02454460     -0.00467510     -0.01663270       1
H               7.24684000     18.16610000      2.25688000      0.00862584      0.02978300     -0.02494890       1
O              13.34690000     21.00600000      9.76003000     -0.00451109      0.04321260      0.03445980       8
H              13.31250000     22.57900000     11.17990000     -0.01866460     -0.06186700     -0.07007350       1
H              11.94620000     21.14060000      8.50133000      0.01760120      0.00719297      0.02396330       1
O              19.48970000      2.66718000     22.82760000     -0.00697733     -0.00145449      0.00257657       8
H              20.32610000      2.09570000      0.36528800     -0.00306934      0.02302780     -0.02705040       1
H              19.38540000      4.49702000     22.40050000      0.00183734     -0.02571680      0.02169940       1
O              14.35950000     14.16800000     15.41980000     -0.00782561      0.03300190     -0.02915290       8
H              14.71310000     12.82450000     14.34020000      0.01851980     -0.07270860      0.01058090       1
H              14.12720000     14.88380000     13.69110000     -0.01521090      0.04103820      0.01146350       1
O               5.35812000     16.55890000      6.13665000     -0.15044800      0.01726270      0.04613350       8
H               6.70472000     15.65240000      6.35144000      0.13412600     -0.06937370      0.00571528       1
H               4.30495000     15.48290000      7.50671000      0.02678900      0.05346310     -0.04647580       1
O              22.90820000     20.24810000     15.43270000      0.02657720     -0.00596146     -0.08935830       8
H              22.12350000     18.96940000     14.10920000      0.02233610      0.03480160      0.03543050       1
H               0.11625500     21.22240000     14.23410000     -0.05082730     -0.03097180      0.05048820       1
O               2.23745000     12.00240000      4.34980000      0.06854050      0.04397930     -0.00496264       8
H               2.60372000     12.20390000      6.15890000     -0.00797064     -0.01341770     -0.01537420       1
H               3.84595000     13.02260000      3.59309000     -0.05917200     -0.04903240      0.01761940       1
O               8.35309000      8.20337000     23.43530000     -0.00079201     -0.00662410     -0.04399750       8
H               8.72348000      8.25291000     21.57600000     -0.00133759      0.00850031      0.02453800       1
H               7.02480000      6.95723000     23.30860000     -0.00363644     -0.00239945      0.01820630       1
O              15.71270000      7.72123000      4.83881000      0.00699286     -0.01024860     -0.00188944       8
H              17.50660000      7.33627000      4.29795000     -0.04315050     -0.01147400      0.01773130       1
H              14.64360000      6.25631000      5.45679000      0.03446580      0.01449540     -0.01005390       1
O               0.52806800      7.45377000      1.65114000     -0.08344050     -0.11054100     -0.06380490       8
H              23.23550000      6.89003000      2.78627000      0.01568440     -0.00106702     -0.01288640       1
H               1.11531000      8.75512000      2.43648000      0.06548320      0.11725200      0.07192920       1
O               6.70228000     12.92760000      0.52817000      0.05425060      0.02134970      0.02619390       8
H               8.39901000     13.36830000      1.29664000     -0.03768130      0.01803070     -0.00941306       1
H               7.41074000     11.28270000      0.26742900     -0.02067770     -0.03666600     -0.01650680       1
O              10.69120000     17.86200000     21.51190000      0.33931500      0.08050420      0.16508100       8
H              11.49520000     18.75660000     20.12860000      0.01984780      0.00389097      0.01962340       1
H               9.47715000     17.60910000     20.76080000     -0.35845300     -0.09054560     -0.18954400       1
O               1.28551000     17.05960000     18.99200000      0.10898700      0.05442400     -0.14528000       8
H               0.46929500     18.35610000     17.86300000      0.01254710     -0.01713170      0.00970984       1
H               0.16839200     16.82370000     20.11070000     -0.12557700     -0.03737930      0.12928300       1
O              20.99670000     16.05330000     21.83900000      0.00712836     -0.11992300     -0.01700560       8
H              20.68710000     14.25410000     20.60480000      0.01116280      0.10275500      0.04413340       1
H              20.34780000     17.56720000     21.23470000     -0.02517360      0.03201420     -0.03080180       1
O              13.13570000      9.48481000      0.57762600      0.14728400      0.09811990     -0.01094730       8
H              11.72790000      8.74767000      0.47148700     -0.16920600     -0.08334400     -0.02143810       1
H              13.77590000      8.88231000      2.10306000      0.02777120     -0.01300740      0.03589150       1
O               4.43657000      2.59284000     18.82020000      0.01999600      0.00394265      0.04470920       8
H               4.54961000      3.45788000     20.61240000     -0.01172620     -0.02075410     -0.04159000       1
H               5.52360000      1.12136000     19.12480000     -0.01286840      0.01433560     -0.00390947       1
O              10.56580000     14.88480000      6.04614000      0.00679908     -0.01207260      0.05103080       8
H              12.07270000     14.96850000      7.25224000     -0.03834130      0.00794320     -0.02023270       1
H              11.11140000     15.38600000      4.43203000      0.01639600      0.00658687     -0.02313960       1
O               3.94178000      4.16209000     -0.29695200      0.01547300     -0.02368770     -0.00198927       8
H               2.31405000      5.19901000     -0.08131700      0.03634970     -0.03660610      0.02306410       1
H               4.48204000      2.50507000      0.67783900     -0.04340950      0.06294280     -0.01721460       1
O               3.44701000     16.44900000     11.70580000     -0.10754900     -0.13727100      0.07750810       8
H               4.52480000     17.68360000     11.90840000      0.08618630      0.09939340      0.01699610       1
H               2.90979000     15.78910000     13.67150000      0.02413980      0.03701210     -0.08676390       1
O              22.92760000      0.98660700     18.30070000     -0.04501950      0.01695640      0.04815440       8
H              22.21650000      1.37400000     20.06080000      0.00214182     -0.01039520     -0.04533290       1
H               0.49131300      1.09679000     18.77560000      0.04258320     -0.00322411     -0.00243811       1
O               4.02990000      8.10846000     14.75120000     -0.04869070     -0.00186808      0.02570800       8
H               5.35535000      7.44264000     15.69260000      0.05259700     -0.01112650      0.00773294       1
H               2.95431000      8.02355000     16.31470000     -0.00754971      0.01565650     -0.03792340       1
O              13.66580000     22.98340000      3.13038000      0.08499500      0.00673202     -0.01178110       8
H              15.20360000     23.04400000      4.60473000     -0.05663810      0.00344090     -0.06563880       1
H              14.76230000     23.10390000      1.08643000     -0.03812240     -0.00890157      0.07399020       1
