192
Lattice="23.36098 0.0 0.0 0.0 23.36098 0.0 0.0 0.0 23.36098" Properties=species:S:1:pos:R:3:force:R:3 TotEnergy=-1102.65569 cutoff=-1.0 nneightol=1.2 pbc="T T T"
O        4.13376000      13.05830000       5.32136000      -0.10587400       0.01735250       0.12127400
H        4.95316000      13.06870000       3.92049000       0.08257500      -0.00270097      -0.12371700
H        2.39194000      13.62670000       4.73470000       0.02396910      -0.00919684       0.00842707
O       20.25100000      20.49710000      15.59190000       0.00299049       0.05039950      -0.05025390
H       20.39760000      22.02680000      14.30300000       0.00197297      -0.05013380       0.03692220
H       20.12620000      21.37960000      17.16410000       0.00075713       0.00254805       0.00762261
O        9.73085000      17.79590000      12.64390000       0.03699590       0.07227390       0.06110470
H       10.42500000      19.08860000      14.15070000      -0.02476420      -0.04391280      -0.06215520
H        9.27709000      16.43010000      13.71470000      -0.00450146      -0.02952120       0.00157672
O       15.30710000       2.33369000       6.59940000       0.01884710      -0.04211160      -0.00047809
H       16.01430000       0.72850600       5.76367000      -0.00932895       0.04307410       0.01819210
H       15.71650000       2.08901000       8.38474000       0.00212566      -0.00916286      -0.00664025
O       11.32610000      17.36380000      21.36240000      -0.05481070      -0.01407030      -0.04514520
H       11.08640000      16.04000000      19.87950000       0.01699710       0.03116740       0.04419380
H        9.45617000      17.82430000      21.71650000       0.03447760      -0.01458420      -0.01211250
O        1.66423000       4.22796000      16.06580000      -0.01586440       0.04371210      -0.03061190
H        2.16082000       5.05338000      14.44280000      -0.00325887      -0.01564010       0.03465640
H        2.74209000       2.82123000      16.35990000       0.01843430      -0.01391790      -0.00892746
O       10.89790000       3.36022000      20.22800000      -0.09490050       0.02025170      -0.16195900
H       12.16430000       3.33018000      17.28990000      -0.02289570       0.00120901       0.07084000
H       12.17110000       3.06345000      21.20280000       0.11147600      -0.01591480       0.07245280
O        8.16589000      12.71020000      13.39600000      -0.00961890       0.00295753      -0.00781246
H        6.78345000      13.16700000      12.23810000       0.01125040      -0.00213900       0.01836900
H        7.33717000      11.63520000      14.63390000       0.00250356       0.00151435      -0.00407386
O        6.23914000      16.99690000      22.56580000       0.04037560       0.04761390       0.06600830
H        5.56983000      16.27310000      21.14160000      -0.01762340      -0.03658450      -0.05098760
H        7.32509000      16.01910000       0.27979700      -0.01656630      -0.01906660      -0.00611848
O       21.53450000      19.10410000       6.45611000      -0.09929160       0.06795410       0.04122790
H       22.86100000      18.37390000       5.86340000       0.12075700      -0.05837620      -0.05979110
H       20.91440000      17.91990000       7.61487000      -0.00981893      -0.01062370       0.02080580
O       16.07000000      13.81100000      10.19280000       0.06093340      -0.11694200       0.09077830
H       15.11970000      15.00610000       9.57320000      -0.07164790       0.09644460      -0.04829240
H       15.34000000      13.58360000      11.93420000       0.02310030       0.00226577      -0.03864530
O        5.26298000      19.46180000      10.12150000      -0.02982530      -0.11094500       0.01987400
H        5.84641000      20.91120000       9.57490000       0.02475720       0.11850200      -0.03936370
H        6.74913000      18.46190000      10.13780000       0.01044690      -0.01101950       0.01323390
O       18.30050000      21.48050000       3.89090000      -0.03120910       0.00804433       0.00933577
H       18.93360000      22.74040000       2.74096000       0.00564235      -0.00666569       0.00152919
H       19.64840000      20.75320000       4.99594000      -0.00405769       0.00255486      -0.01319650
O       23.31040000      14.05210000       2.45202000       0.04856390      -0.03163590      -0.03355350
H       21.74690000      13.49860000       3.06288000      -0.03332680      -0.00473586       0.01989640
H        0.55252000      12.48820000       1.45740000      -0.01645190       0.03726410       0.01980530
O        9.17970000       0.62766300      14.89890000      -0.08178270       0.13843600      -0.13327500
H        7.64017000       0.65926100      15.74610000      -0.03897730       0.00896405       0.01679770
H       10.02980000      22.97210000      15.72420000       0.12909400      -0.14346600       0.11756600
O       13.44070000       6.29817000       4.18846000      -0.04620170       0.04954240       0.03978620
H       13.86200000       5.07540000       5.56468000      -0.01283330       0.02000600      -0.02277020
H       12.18800000       7.73457000       4.83962000       0.04499430      -0.06109900      -0.01152110
O       22.90920000       0.63365000       1.00280000       0.00672247       0.01898460      -0.00966139
H       22.62060000       1.80860000      22.93980000       0.00088179      -0.01844400       0.01332890
H        0.30882000       1.71382000       2.27703000      -0.00902211      -0.00098221      -0.00344562
O       14.68190000       3.50828000       0.32395200      -0.01343030      -0.02376410       0.00008988
H       13.13420000       2.77911000       1.06243000       0.02303970       0.01883120      -0.00246248
H       15.14340000       2.24260000      22.43928600       0.00884772       0.00097308       0.01298110
O       23.26790000       3.68726000       8.78319000      -0.15722800       0.08350140      -0.01700680
H        1.15696000       2.73002000       8.41203000       0.13058000      -0.09383800      -0.03176820
H       22.18740000       3.52751000       7.11492000       0.03540870       0.02081990       0.04503680
O       10.28450000       9.70417000      21.66600000      -0.00792348       0.04830800      -0.01920200
H       11.06330000       8.51902000      22.66280000       0.01379310      -0.05138510       0.02655080
H       11.69190000      10.86750000      21.65920000       0.00237679       0.00368725      -0.00559382
O        0.03912000       9.68722000      22.73210000      -0.06755450       0.05979440       0.00995018
H        0.94281500       8.19198000      22.30050000       0.00490127      -0.02259130      -0.00843377
H       21.49330000       9.77205000      22.48880000       0.04918320      -0.02700530       0.00579678
O       15.52700000      11.37370000      22.59120000       0.00229696      -0.02270910       0.05917090
H       16.79850000      11.59920000      21.32810000       0.00770003       0.00852594      -0.01000620
H       16.50470000      11.24370000       0.88778000      -0.03305610       0.00239576      -0.05004240
O       22.28020000       9.70041000      14.07180000       0.02011300       0.01004840       0.03756740
H        0.63966900       9.22459000      13.56560000      -0.01920340       0.00569946       0.00763455
H       22.42430000      10.31700000      15.96050000       0.00114778      -0.01301210      -0.05545600
O       20.74380000       1.62127000      19.22910000      -0.01616020       0.01126980       0.02178130
H       20.58730000       3.40548000      18.77670000       0.00156925      -0.01293280       0.00390576
H       19.34170000       1.29703000      20.45370000       0.02004640       0.00166243      -0.02414360
O       13.45920000      17.62350000       9.31049000      -0.02829360       0.05430330       0.01159310
H       11.89380000      17.65600000      10.69060000       0.04112570       0.00084218      -0.03095330
H       14.49070000      19.20140000       9.62018000      -0.02342990      -0.03171080       0.00595462
O        3.49549000       7.53147000       5.25889000      -0.00319665       0.03430440       0.03482970
H        2.62144000       9.00930000       6.15979000       0.03444240      -0.03894120      -0.02442600
H        5.15608000       7.27531000       6.09972000      -0.03087730       0.00593307      -0.01638590
O       11.57360000      10.70120000       7.80638000       0.10067700      -0.04130550      -0.05138840
H       12.94880000      10.90460000       9.00013000      -0.00564614       0.00216013      -0.00884974
H       10.22980000      11.35680000       8.50605000      -0.09442420       0.04022640       0.05721860
O        5.54612000       2.04176000      23.28380000       0.00825439      -0.01108020       0.00761679
H        4.81984000       0.33705400      23.16430000       0.00692441       0.01163810      -0.00586085
H        7.34763000       1.71781000       0.09992000      -0.01029000       0.00499703      -0.01310820
O       22.00680000       5.01339000       4.01160000      -0.05296200      -0.07594100      -0.01904870
H       20.30780000       5.30308000       3.30883000       0.02623770       0.01695850       0.01183210
H       22.97026700       6.39724000       4.31351000       0.02570830       0.05632660       0.00471903
O       12.64820000      20.53750000      17.50460000      -0.01856310      -0.05092410       0.06246680
H       11.87200000      19.38530000      19.48460000       0.02356980       0.03132820      -0.05542330
H       13.76430000      19.13340000      16.99040000      -0.00171785       0.01826730      -0.00729703
O        4.45793000       0.45110400      17.24030000      -0.01365500      -0.02747930      -0.02859100
H        3.43004000       0.58562000      18.73110000       0.00575572      -0.01548280       0.00364032
H        3.68913000      22.42630000      16.14810000       0.01373160       0.01774510       0.02530810
O        4.31067000      19.21740000       4.89787000      -0.01472390       0.16429100      -0.21453800
H        4.60771000      18.21120000       6.02230000       0.04430890      -0.16367800       0.18802900
H        5.85911000      19.23440000       3.82192000      -0.03653960       0.00042963       0.01807440
O        6.12979000      10.39900000      17.78010000       0.02301950      -0.02688180       0.03395630
H        5.91272000       8.70327000      18.75800000       0.00704184       0.05253290      -0.02584480
H        7.78573000      11.14150000      18.32970000      -0.03398450      -0.02589140      -0.00250898
O       19.45170000      17.97710000      22.75170000      -0.03906080      -0.01268600      -0.00100133
H       20.54160000      18.26160000       0.77642000       0.01217070       0.00505520       0.00690506
H       17.99040000      17.02370000       0.31854500       0.01549430       0.00780032      -0.00637426
O       15.92420000      17.57860000      14.77060000       0.03562350      -0.01180840      -0.00330132
H       16.36580000      15.83980000      15.18250000      -0.00292413       0.01450810      -0.00593943
H       17.65640000      18.31870000      14.42330000      -0.02858250      -0.00343979       0.01538140
O       18.70260000      12.92650000       5.32206000      -0.03013200       0.05376090       0.02257770
H       17.50610000      14.20760000       4.04057000       0.00717182      -0.01364220       0.01202380
H       18.15610000      13.41830000       7.11607000       0.01304850      -0.01839520      -0.04989070
O       12.95300000      19.44360000       4.28361000      -0.02472910      -0.01069550       0.00459733
H       13.22950000      18.48560000       5.94755000      -0.01488060      -0.00098498      -0.01240800
H       14.77510000      20.30720000       3.96657000      -0.02970380      -0.03029170      -0.02458080
O       17.04220000       9.43970000      15.41410000      -0.09960290      -0.00829146      -0.03706240
H       16.03540000       8.54853000      13.97110000       0.03473280       0.03510830       0.04252560
H       18.56820000       8.67836000      15.22570000       0.06777260      -0.02391140      -0.01004960
O        3.91292000      13.51230000      10.73100000       0.01045610      -0.00759364      -0.02689720
H        4.35499000      14.53920000       9.24633000      -0.00719870      -0.01188660       0.00966425
H        4.37804000      11.78420000      10.19320000      -0.01864840       0.01736790       0.00417263
O        9.21614000      13.55670000       3.05388000       0.00441521       0.03328760      -0.10328200
H        9.68067000      12.61660000       4.38886000       0.02440040      -0.04247770       0.06360170
H       10.23700000      12.83360000       1.59285000      -0.02577290       0.01481200       0.03739640
O       16.05180000      23.15470000      11.27900000      -0.23708500       0.10199400       0.03871570
H       17.35850000      22.34950000      11.63000000       0.17551700      -0.10101800       0.05142650
H       14.78950000      23.26926000      13.52790000       0.06248500       0.00238843      -0.09249890
O       18.15420000      13.31240000      19.28010000      -0.01375830       0.04054680      -0.02743790
H       19.73530000      13.46370000      18.37750000       0.01064340      -0.01383440       0.00335233
H       17.58940000      15.06880000      19.22870000       0.00336108      -0.01414690       0.01582650
O       22.76250000      12.35430000      18.35210000       0.01300140      -0.01653560       0.04039620
H       23.03930000      11.63770000      20.18110000       0.00226464       0.01499170      -0.04673820
H        0.69017100      13.60590000      18.04310000      -0.00820946       0.00181735       0.00206276
O       12.55290000      13.40030000      17.39220000       0.04707630       0.18758500      -0.07525330
H       12.27010000      11.98310000      18.01160000      -0.04297500      -0.19126500       0.07614110
H       14.36540000      13.32800000      17.14060000      -0.00645435       0.00049345       0.00350318
O        3.38905000       6.67368000      21.31010000      -0.03218720      -0.02251690      -0.05163900
H        2.60448000       5.33855000      20.15340000       0.02483380       0.03398590       0.02418240
H        4.62347000       5.84767000      22.27380000       0.01466420      -0.01989080       0.01585590
O       19.86740000       4.46295000      14.40130000       0.00387326       0.04160510      -0.05887870
H       19.96960000       6.21893000      12.14550000      -0.01824760      -0.06289440       0.07225340
H       21.59560000       3.77226000      14.59860000      -0.02017920       0.01306290      -0.00081264
O       18.82410000       6.86323000      20.15800000      -0.02556190      -0.01982270       0.11770300
H       17.39370000       6.85388000      21.64290000       0.05740050       0.00052522      -0.05593270
H       17.89870000       7.27680000      18.77800000      -0.03493660       0.02383830      -0.05656620
O       17.49540000       7.26531000      10.44040000       0.01966710      -0.00146914      -0.08946480
H       16.68210000       6.15767000       8.95122000       0.03493350       0.03738860       0.05645250
H       18.62550000       8.49356000       9.38552000      -0.03823530      -0.03053600       0.03067530
O        8.72049000       7.05160000      11.20630000      -0.04435740       0.07566400       0.03064380
H        9.62222000       7.82403000      12.60930000      -0.00526597      -0.00261981      -0.01307440
H        9.61504000       5.68089000      10.77840000       0.03960760      -0.07105960      -0.02482180
O       16.72570000      22.45310000      21.45900000      -0.01309550      -0.02537660      -0.01253400
H       17.55070000      20.77440000      21.71670000       0.00589128       0.01329690       0.00929690
H       15.37910000      21.98130000      20.28380000       0.00709793       0.00529882       0.00232300
O       17.97990000       8.51266000       3.54469000      -0.04578720      -0.01404470       0.01476200
H       18.12180000      10.29100000       3.28688000       0.01781070       0.00805351       0.01796210
H       16.30060000       8.50029000       4.51670000       0.04032860      -0.01376540      -0.03247180
O       12.18150000       7.40025000      15.32610000       0.03697860       0.00795804       0.00248950
H       13.81980000       6.67921000      15.88710000      -0.03052620       0.01408170      -0.00767832
H       10.97080000       6.23908000      15.89910000      -0.01785650      -0.01446640       0.01131810
O        2.90609000      19.18730000      14.32040000       0.20345900       0.00528915      -0.05545330
H        3.54100000      18.88830000      12.40170000      -0.02139960       0.01904560       0.06507870
H        1.32079000      19.10460000      14.39250000      -0.18847200      -0.01615830       0.00689658
O       14.94490000       2.83669000      16.01670000       0.06623560       0.06623580      -0.06830790
H       14.62640000       2.12664000      17.50090000      -0.00180329      -0.05498050       0.09121030
H       16.92340000       3.77495000      16.24020000      -0.05435470      -0.03385330      -0.02609550
O        4.34406000       0.51577100       7.50177000       0.04403910       0.07914750      -0.02185920
H        4.04629000      22.79080000       6.07979000       0.00172999      -0.00088247      -0.00224558
H        5.51691000       2.31864000       6.66093000      -0.04894030      -0.07275050       0.02417660
O       21.77150000      22.87880000      11.02890000      -0.02102830      -0.10542900       0.10617400
H       21.60790000       0.73762300       9.92884000       0.01223100       0.08594870      -0.07476640
H       23.27150000      21.89450000      11.15290000       0.00521636       0.00971863      -0.01732300
O        9.41169000      22.56820000       2.22441000      -0.02161910      -0.02842250      -0.03087240
H       11.03850000      22.47350000       3.00222000       0.00270161      -0.00460461      -0.00718037
H        9.16701000      21.34100000       0.77334400       0.01594980       0.03387960       0.03318020
O       10.19640000       2.14284000       9.27738000      -0.00855345      -0.02691570       0.04894420
H       11.94190000       2.20662000       8.89934000       0.01418430      -0.00138663      -0.00823711
H       10.17210000       1.23306000      10.98970000      -0.00730486       0.02413150      -0.03999480
O       15.94780000      15.64620000       2.24376000       0.04082110       0.02987540       0.03805800
H       11.14540000      18.70230000       3.10609000       0.09922510       0.02555100       0.04387780
H       14.89560000      14.67070000       1.26767000      -0.02326620      -0.02588030      -0.02502310
O       22.65760000      15.95610000      10.83120000       0.25854100       0.03236340       0.08236240
H       21.41400000      15.29120000      10.19900000      -0.20044900      -0.10929200      -0.09226540
H        0.89038400      14.22530000      10.62870000      -0.05869010       0.07384070       0.01603770
O        3.88182000      15.39880000      18.40670000      -0.05397670      -0.07121150       0.25544800
H        4.18668000      15.52160000      16.89850000       0.04918410       0.02706270      -0.24418900
H        3.79377000      13.51330000      18.79680000       0.01484850       0.04033860      -0.01383370
O        7.24248000       3.89969000       4.47296000       0.03588420       0.02609480       0.08174570
H        8.43572000       2.65548000       5.02097000       0.01115210       0.00580401       0.00720232
H        6.60674000       3.14490000       3.09805000      -0.04602580      -0.02963360      -0.07611080
O        3.05459000      21.09490000      21.76750000      -0.00068770      -0.00460658       0.01145890
H        3.12437000      19.28040000      22.10920000      -0.00336928       0.02337670       0.00146220
H        2.03583000      21.92890000      23.07290000      -0.01084100      -0.01544500      -0.00976098
O        3.22672000       7.85796000      11.21040000       0.12443200       0.11248300       0.04650080
H        2.50523000       6.64151000      10.41580000      -0.07487650      -0.11263100      -0.07879580
H        5.07042000       7.81793000      10.51500000      -0.04627930      -0.00646702       0.03365220
