192
Lattice="24.65838 0.0 0.0 0.0 24.65838 0.0 0.0 0.0 24.65838" Properties=species:S:1:pos:R:3:force:R:3 TotEnergy=-1103.41455 cutoff=-1.0 nneightol=1.2 pbc="T T T"
O       24.19390000      20.47202000      18.73156000      -0.02072260       0.00858605      -0.00548598
H       22.66690000      20.98961000      17.84776000       0.00851301       0.01077770       0.00822331
H       24.46190000      18.92930000      17.71076000       0.01460850      -0.00698847       0.00033670
O       22.66522000      21.24212000      23.52213000       0.00315832      -0.02085960      -0.01268630
H       23.49612000      22.79682000      23.94210700       0.00412198       0.00644969       0.00450305
H       23.37882000      20.69872000      21.86007000      -0.00824152       0.00876993       0.01489580
O       11.28560000       4.52644000      14.81050000       0.03367970      -0.00990719       0.08473330
H       12.45780000       3.43655000      16.01500000      -0.02871000       0.05428270       0.00113503
H       11.66840000       3.36071000      13.63040000      -0.00199110      -0.04333400      -0.08449430
O       18.57047000      15.66208000      22.55013000       0.08020460       0.02604170       0.01888480
H       20.01038000      14.94700000      21.42371000      -0.03748560       0.00890934       0.02432310
H       19.55349000      16.80381000      23.97878100      -0.04823570      -0.04249850      -0.05279180
O        5.05207000       8.82282000      19.72790000       0.02163500       0.01534370      -0.02153550
H        6.51025000       9.70822000      20.53800000      -0.01473520      -0.00440904       0.00115111
H        5.48399000       9.25232000      17.95440000      -0.00637208      -0.01358140       0.01183830
O       19.43268000       9.67272000       7.18388000      -0.01493670      -0.01172000       0.03272030
H       19.28821000       8.72307000       8.93119000      -0.01555210       0.01885220      -0.06568820
H       18.08345000       9.24784000       5.87782000       0.02861870      -0.01072520       0.02855560
O       21.63602000       2.49092000      11.86110000      -0.11237500      -0.01073950       0.00477877
H       23.20532000       1.87172000      11.60060000       0.06520880      -0.02721880      -0.00353097
H       20.37352000       1.01952000      11.51150000       0.03879300       0.04161620       0.00350684
O       21.97474000      15.84756000       6.75452000      -0.05445240      -0.01298970      -0.01267980
H       22.17925000      17.20696000       5.45997000       0.00472726      -0.02346010       0.01667750
H       20.22754000      14.93946000       6.52894000       0.05030570       0.04005910       0.00151738
O        7.90422000      15.62116000      18.87860000       0.02500150       0.03730130      -0.01079980
H        6.63322000      15.35736000      17.65490000      -0.01870700      -0.01204670      -0.01267880
H        7.69842000      14.62716000      20.34030000      -0.00336745      -0.01910050       0.01358260
O       10.10360000      22.02476000      24.15536000       0.00657990      -0.03245020       0.04163200
H       11.94720000      21.67726000      24.21126000      -0.01766470       0.00827800      -0.01158220
H        9.56321000      20.83986000       0.93938000       0.00158170       0.02268190      -0.03213520
O       14.92099000       2.26173000       7.83749000      -0.00614456       0.00169963       0.01979650
H       14.02268000       2.48081000       6.34023000       0.00314635       0.01366890      -0.05272850
H       13.41688000       1.80945000       8.74418000       0.00483739      -0.01068130       0.03009160
O       13.33878000       4.10332000       2.55744000      -0.00185365       0.00020190       0.00972268
H       11.52668000       4.14062000       3.14294000       0.02342300      -0.00365473      -0.03036110
H       13.96558000       3.33582000       0.94474000      -0.02332100       0.00430538       0.01868250
O       15.11360000      19.49306000      10.64458000      -0.04440830       0.06674300       0.00478389
H       15.54230000      18.09056000       9.81658000       0.01269400      -0.08244510      -0.06194700
H       16.36060000      19.41156000      11.83848000       0.03222680       0.01145000       0.05686840
O        4.62422000      14.52470000      14.41482000      -0.02824300      -0.04482250      -0.01735640
H        2.91482000      14.78810000      15.21362000       0.02679020       0.00057923      -0.01906670
H        4.44512000      12.90160000      13.30052000       0.00370649       0.04778540       0.03414120
O        0.20848000       0.98135800       1.48379000      -0.06877940      -0.02765140       0.02586970
H       24.51951900       0.40504700       3.26835000      -0.01486420       0.00778197      -0.02810320
H        1.79236000       1.53263000       1.73343000       0.08205570       0.02822660      -0.00754882
O       18.90796000      23.41250000       8.66732000       0.02762100      -0.05185750       0.03699320
H       17.96016000      24.61110000       7.85102000      -0.03976780       0.03408420      -0.01962330
H       17.75786000      22.11590000       9.33672000       0.00707057       0.01902000      -0.01224440
O       15.71726000      12.00500000       0.21152000       0.02334380       0.05734480      -0.02950010
H       15.24486000      10.99440000      23.36200000       0.00521699       0.01814510       0.00980131
H       16.77256000      13.83090000      24.19040000      -0.02644720      -0.07691290       0.00910608
O        3.98218000      16.44404000       3.57008000       0.00892554       0.05264540      -0.00971569
H        4.98318000      15.81144000       4.96518000      -0.03216320      -0.02615230      -0.00709805
H        2.86268000      15.66294000       2.33468000       0.02507150      -0.02825190       0.03123530
O       19.13074000      20.46400000      14.59622000      -0.00833340       0.03732320       0.00198545
H       18.65434000      22.34070000      14.00232000       0.00085484      -0.06164010       0.03737260
H       18.60914000      19.87880000      16.40732000      -0.00638574       0.03066610      -0.04532830
O        8.36424000       4.80208000       3.99073000      -0.01512400      -0.02887660      -0.02586330
H        8.03304000       3.92148000       5.56496000       0.00162037       0.00469495       0.00604531
H        7.47774000       3.62478000       2.73108000       0.01128780       0.02718660       0.01360770
O        4.89462000      17.89180000       9.17348000       0.07854390       0.02091090       0.00754595
H        6.94922000      18.31790000       9.51458000      -0.07895740      -0.01952340      -0.01715290
H        4.48132000      16.41830000      10.14758000       0.00387399       0.00415611       0.00682666
O        7.54578000       8.45461000      14.77834000       0.04875850      -0.01943400       0.00269001
H        7.89508000       9.67361000      13.46434000      -0.00129458       0.01100290       0.00216825
H        9.34708000       7.76981000      14.98114000      -0.04932040       0.01028590       0.00107406
O        5.63917000       1.94360000       0.47570600       0.01507830      -0.01877040      -0.05172510
H        4.88410000       2.64902000      23.38873000       0.02285670      -0.03339630       0.05059480
H        6.77997000       0.42989600       0.02819200      -0.03266310       0.04270480       0.00713101
O       20.34882000       4.40795000       0.33162000      -0.04408370       0.08183710      -0.04492900
H       20.12672000       6.27982000       0.83712000      -0.01318310      -0.05290450      -0.00516024
H       21.43532000       3.79501000       1.49292000       0.05102140      -0.03473840       0.04706930
O       24.34582400      11.37664000       7.32752000      -0.03366910      -0.03536680       0.01053420
H       22.84410000      10.16864000       7.48442000       0.03171810       0.02250930      -0.01193680
H       23.42291000      12.93524000       7.61402000       0.01136290       0.00889279      -0.00777837
O       10.31420000      12.15792000      12.04820000       0.02256810      -0.02535890      -0.03771100
H        9.76908000      11.90992000      10.27790000      -0.01973270       0.02345240       0.01070940
H       11.81560000      11.07892000      11.76210000      -0.00215775       0.00472826       0.02978430
O        8.92368000      20.98670000      19.06860000      -0.00586876      -0.00081536       0.03279840
H        8.78488000      19.13450000      19.18830000      -0.00362226       0.00980829      -0.00109440
H        8.94958000      21.55570000      20.91510000       0.00823525      -0.01164510      -0.03260400
O        7.22062000       9.97882000       2.83104000       0.13637500      -0.03786200       0.00512871
H        7.77542000       8.18022000       3.14174000      -0.02530810       0.02677800      -0.00280297
H        5.58542000      10.28632000       2.73824000      -0.11380600       0.00748667      -0.00319414
O       13.74380000       9.43242000      20.46360000       0.02828130       0.02174960      -0.07108260
H       14.70610000      10.17022000      18.73270000      -0.03556480      -0.03564770       0.07740640
H       13.56770000       7.62802000      20.09510000       0.00522528       0.01133680       0.00169218
O        3.83809000      23.62046000      18.03090000       0.06043560      -0.03108260      -0.00864197
H        2.60475000      22.34226000      18.38430000      -0.01450720      -0.00404430       0.00213324
H        5.52115000      22.59166000      18.03160000      -0.04413890       0.03261410       0.00263866
O       24.03197300      19.16520000       3.37795000      -0.20245700       0.02870220      -0.04996300
H        0.95897400      18.91870000       3.47630000       0.16601700      -0.02991880       0.00310870
H       23.29717000      19.27970000       1.53328000       0.03378260       0.00900894       0.04064170
O        1.70525000       0.26395700      13.27780000      -0.01678800       0.02745920       0.01045960
H        2.16706000      24.08679300      11.78610000       0.01374010      -0.01801280      -0.02390770
H        2.71789000      24.34330700      14.64420000       0.00721558      -0.01009400       0.01259430
O       14.87326000       3.82554000      18.47296000      -0.01591180      -0.02204250       0.01273900
H       16.42336000       4.67814000      17.94836000       0.00027861      -0.02008960       0.01279160
H       15.01856000       2.57694000      19.99286000       0.01537910       0.04032650      -0.02695420
O        7.13734000       2.28544000       8.42968000      -0.04639810      -0.02655340      -0.02576340
H        5.93521000       3.55424000       9.03208000       0.00207941      -0.00967924       0.00481876
H        6.02422000       0.76574000       7.82198000       0.02534300       0.03879890       0.02457740
O       12.94806000      15.38582000       3.69335000       0.11016600      -0.06925360      -0.03513360
H       13.12526000      14.43062000       2.05482000      -0.00584567       0.00711493       0.03455260
H       11.45946000      16.15082000       3.65860000      -0.09349440       0.04617280      -0.00834403
O       17.98600000       9.72622000      16.94760000       0.21550600      -0.00852335       0.21334400
H       16.95030000       9.63942000      15.83490000      -0.18491900      -0.02188300      -0.21412600
H       18.97200000       8.05752000      17.06430000      -0.02974760       0.03412300      -0.01229930
O        7.57568000      12.56988000       7.73747000       0.01311570      -0.03145530      -0.06823630
H        7.69378000      11.47728000       6.05530000      -0.00225306       0.03644580       0.04851510
H        5.90468000      12.19798000       8.31093000      -0.00319972      -0.00551385       0.00899666
O        3.21256000       3.42078000      20.86310000       0.00259750       0.02635770      -0.04557080
H        2.91416000       2.78513000      19.09630000       0.00907456      -0.00725165       0.03851990
H        4.26006000       4.91399000      20.47150000      -0.00968857      -0.00437155       0.00641977
O        3.84248000      10.42838000      10.70662000       0.06363920       0.17378500       0.00730807
H        3.99868000       8.92028000      11.16742000       0.02202520      -0.18412600       0.05972100
H        2.48298000      10.48618000       9.74782000      -0.09643070       0.01145990      -0.06504180
O       16.64750000      14.80310000       7.30802000      -0.04623250       0.02420090      -0.03005210
H       17.37500000      13.26800000       7.76802000       0.00784851      -0.03573550       0.01122540
H       15.09300000      14.42640000       6.20802000       0.03721430       0.01086300       0.02141750
O        3.30238000      22.75730000       8.44872000      -0.02519070       0.04694670      -0.04340520
H        3.66208000      20.94595000       8.58392000      -0.00949146      -0.00147829      -0.01263910
H        2.16248000      23.42043000       6.93382000       0.03373960      -0.04455580       0.05546760
O       17.77992000       6.05878000      10.55212000      -0.02153620       0.03840630      -0.00592473
H       16.74932000       5.24580000       9.23672000       0.02438260      -0.01998800       0.01579760
H       19.14102000       5.27736000      11.46512000      -0.00383956      -0.02298760      -0.01193990
O       16.41690000      18.83366000      18.42401000       0.00404983      -0.02525900       0.00136991
H       17.26475000      17.37896000      19.26446000      -0.01820610       0.01826420      -0.00791999
H       15.18859000      18.15556000      17.19585000       0.00922401       0.00022726       0.01296590
O        4.13524000       5.20328000      12.16888000       0.06834350       0.05247440      -0.00494433
H        5.66264000       5.67218000      13.25278000      -0.02559640       0.00705892      -0.02823700
H        3.53024000       3.98218000      13.20918000      -0.04079830      -0.05663770       0.02766490
O       10.46880000      24.60152500      10.76830000      -0.02299320      -0.00086364       0.02200530
H       10.41710000      23.58434000      12.39230000      -0.00106975       0.02236330      -0.02708480
H        8.87539000       1.03561000      10.54030000       0.03255480      -0.02501420       0.00257836
O       15.27506000      21.26423000      23.01272000       0.00303148      -0.03552930       0.01084820
H       15.19966000      20.57274000      21.33042000      -0.00151388       0.00880385      -0.01419160
H       15.99216000      19.74284000      23.85442000      -0.00172224       0.03220990       0.00469651
O       12.19400000      16.17034000      15.27417000      -0.03835770      -0.00113140       0.01316040
H       10.55570000      16.06173000      16.27800000       0.03913650      -0.00321796      -0.01769940
H       11.96290000      14.87114000      13.97398000      -0.00135079       0.00794852       0.00696346
O       20.99810000      16.29370000      12.61150000      -0.03995070       0.04599050      -0.00338961
H       19.61230000      17.88350000      12.87570000       0.06740460      -0.05084070      -0.00637669
H       21.77710000      16.43990000      10.94590000      -0.01479230       0.00317858       0.00640313
O       11.86670000      21.92270000      14.85901000      -0.02327350       0.02016830       0.03512710
H       10.88850000      21.70800000      16.48495000       0.01252370       0.01612370      -0.01057170
H       11.66340000      20.28360000      14.26838000       0.00748876      -0.04286580      -0.02285320
O       22.97130000      23.60102000       5.52922000       0.11673500       0.02580020      -0.11993500
H       22.07650000      23.95152000       6.82382000      -0.09651140       0.00523778       0.12157400
H       23.17330000      22.10012000       4.60192000      -0.01461010      -0.04021890       0.00634616
O       17.04574000       7.70822000       2.71267000      -0.03536120       0.04989060      -0.01338390
H       16.55026000       9.48683000       1.91751000       0.01465690      -0.04514490       0.01854720
H       15.40097000       6.75068000       2.73778000       0.02545600       0.00545483      -0.00067979
O       15.99770000       0.23688000      13.71470000      -0.05666540      -0.05307400      -0.04675120
H       14.13630000      23.79626000      13.45730000       0.08124510       0.04862100       0.03129340
H       16.05970000       1.20308000      15.20600000      -0.01238910       0.00591374       0.02205180
O        0.17300900      16.65110000      16.05332000      -0.02706890      -0.04080160       0.01799890
H       23.71015000      15.42390000      17.08232000       0.02237960       0.01920490      -0.01900990
H       23.80156200      16.75710000      14.52212000      -0.00467046       0.00282723      -0.00189382
O       17.51142000      17.81812000       2.04878000       0.02851410       0.01302540       0.03148400
H       18.62682000      18.13852000       3.66287000      -0.06313250      -0.01925330      -0.04903240
H       15.81522000      16.98092000       2.14126000       0.03219470       0.01258270       0.03434560
O       21.80850000      13.22310000      18.70066000      -0.04776720       0.05310220      -0.03879600
H       22.89150000      12.26870000      19.66526000       0.03537280      -0.04634310       0.02751300
H       20.62080000      12.33960000      17.57466000       0.01313520      -0.00543191       0.01745760
O        8.94508000      18.20982000       3.22244000      -0.04033110      -0.02522080       0.00311816
H        7.25928000      17.25472000       3.45311000       0.03711460       0.03195390      -0.01930770
H        9.49898000      18.52332000       4.92052000      -0.00306398       0.01212140       0.01272830
O        9.87645000      19.75146000       8.33952000       0.01437730       0.05171980       0.02432110
H       11.38080000      19.30586000       9.37512000      -0.02056430       0.00752231      -0.01586840
H        9.77477000      21.74926000       8.61922000       0.00712524      -0.06104680      -0.00310600
O        2.20164000      11.85112000       2.57621000      -0.03346680      -0.00773344       0.05769350
H        0.87401500      11.55092000       4.00654000       0.04185490       0.01206790      -0.02232060
H        1.26253000      11.30002000       1.19488000      -0.01121890      -0.01175510      -0.03956620
O       14.13988000       8.70678000      13.10620000       0.03757610      -0.08012250      -0.03179920
H       13.41178000       7.04228000      13.86250000       0.01164540       0.04589200      -0.01789970
H       15.57262000       7.75228000      11.76820000      -0.04369960       0.03539430       0.05459730
O       19.79581000       4.74926000      16.88780000       0.06478620      -0.00133715       0.01850930
H       21.29921000       5.19365000      18.30910000      -0.04222180      -0.02263910      -0.04160380
H       20.64561000       3.67599000      15.55770000      -0.01535590       0.02348970       0.02300350
O        0.58712000      10.44948000      21.61590000       0.02494300      -0.03406970      -0.03722900
H       24.18830000       8.85248000      21.45410000       0.02680120       0.03115380      -0.00037559
H        2.32252000      10.06908000      20.51223000      -0.05372730       0.00524234       0.04175120
O       22.96860000       5.67856000      20.69302000       0.01216350       0.00501947       0.00008105
H       21.83520000       5.35612000      22.12582000       0.01101830      -0.01109400       0.00227253
H        0.03302000       5.00525000      21.05642000      -0.02281500      -0.00163988      -0.00155490
O       15.71210000       1.84632000      23.01852000       0.03751570      -0.04123110       0.02242870
H       17.76360000       2.26242000      23.42452000      -0.08650500      -0.02720830      -0.00802837
H       15.04230000      24.55220000      23.35712000       0.05157100       0.06629030      -0.01085450
O        8.64718000      11.74230000      22.09170000      -0.00556755      -0.05701910       0.05831960
H       10.33208000      11.04780000      21.64470000      -0.01563280       0.00787826       0.00463566
H        8.08048000      10.71160000      23.78350000       0.02660470       0.04450590      -0.05155460
