192
Lattice="24.48372 0.0 0.0 0.0 24.48372 0.0 0.0 0.0 24.48372" Properties=species:S:1:pos:R:3:force:R:3 TotEnergy=-1103.40256 cutoff=-1.0 nneightol=1.2 pbc="T T T"
O       23.50540000      19.74510000      19.94844000       0.00194697       0.02364860       0.01682110
H       22.34360000      19.84966000      18.60654000      -0.02425270       0.01437150      -0.01980630
H       23.91340000      18.02388000      19.82244000       0.01941300      -0.03196220       0.00665651
O       22.00338000      20.49658000       1.20132000       0.00698750      -0.05734250      -0.05616990
H       22.55638000      22.05568000       1.68510000       0.02089690       0.06085530       0.02376510
H       22.88268000      20.30928000      24.00307700      -0.02397800       0.00246839       0.02522550
O       12.11380000       6.27584000      14.10630000       0.01071210      -0.04254070       0.03198790
H       13.02540000       5.59692000      15.68480000      -0.01111190       0.02180150      -0.03366620
H       11.76700000       4.62850000      13.18370000       0.00192502       0.02679500       0.00282911
O       17.43807000      14.30392000      21.00179000       0.00605684       0.02326880      -0.00423598
H       18.20923000      13.66182000      19.40633000       0.00007051       0.01488190       0.02862240
H       17.98501000      16.01852000      21.78083000      -0.00825399      -0.03886620      -0.02254770
O        6.08570000       7.09558000      19.63870000      -0.04029130      -0.01522600      -0.05925110
H        7.63270000       7.50968000      20.34650000       0.03556140       0.01086110       0.01274270
H        6.25361000       7.02638000      17.69610000       0.00125963       0.01097490       0.04236880
O       19.14721000      10.20470000       6.41841000       0.00226058      -0.00584213       0.02901650
H       19.04736000       8.72416000       7.57151000       0.00949388       0.02060000      -0.01604700
H       18.49764000       9.65394000       4.84462000      -0.01262060      -0.01129680      -0.01879400
O       21.03138000       0.15628000      13.15620000      -0.06037680      -0.03256100      -0.02973330
H       22.69408000      24.28390000      12.59290000       0.01987340       0.00193187       0.00319001
H       19.86248000      23.66810000      11.83880000       0.03269930       0.02549050       0.02511560
O       23.70725400      20.08354000       7.70951000      -0.04849700       0.08162110       0.03687810
H       24.07194400      19.19284000       6.25709000       0.00144610      -0.02946100      -0.04520640
H       22.41912000      21.53174000       7.26430000       0.03867400      -0.05333160       0.01588570
O        6.48178000      15.15434000      19.62750000       0.03573300      -0.06699430       0.05130710
H        4.68288000      15.46964000      19.72260000      -0.00200500      -0.00561722       0.00065748
H        6.91418000      13.67114000      21.08120000      -0.02036460       0.06140750      -0.04224940
O        9.79757000      21.99234000      24.20814000       0.02479240       0.04338060      -0.11286000
H       11.51420000      21.73434000      23.41104000      -0.03062250       0.01216860       0.00698602
H        9.99568000      21.25424000       1.21542000       0.00435599      -0.05052690       0.09558340
O       15.96371000       2.17313000       7.84419000      -0.05269790       0.01125480       0.10473300
H       15.26610000       2.12350000       6.27746000      -0.01469880       0.00371891      -0.07952450
H       14.15142000       2.35985000       8.78988000       0.07004190      -0.01125110      -0.01725870
O       14.24352000       3.69338000       3.28016000      -0.12993400       0.06656980       0.12222800
H       12.02442000       3.46228000       3.42996000       0.08446350       0.01797220      -0.00389203
H       14.45602000       2.72868000       1.98526000       0.03018680      -0.08285790      -0.12486200
O       15.84270000      18.37544000      10.77682000      -0.04468190       0.05504530      -0.13916200
H       15.93090000      17.20414000       9.30072000       0.01577320      -0.00209396       0.02963490
H       16.24530000      17.77334000      12.24842000       0.02793470      -0.05608110       0.10786800
O        2.90358000      15.47590000      14.08618000      -0.00023981      -0.01135930      -0.00596869
H        1.67568000      16.49370000      13.10898000       0.00578024      -0.02264610       0.00890720
H        2.87638000      13.73210000      13.40218000      -0.00567361       0.02826960      -0.00134595
O        0.07799600       0.89959200       2.16662000       0.04993030       0.02991140       0.01945580
H       24.48299900       2.01244000       3.70806000      -0.01896580      -0.02335180      -0.01727630
H        1.89707000       1.35664000       1.76361000      -0.03519080      -0.02032900      -0.00711234
O       18.77204000      22.40050000       9.19768000       0.07100460       0.15968600      -0.03381880
H       17.84264000      23.96930000       8.41448000       0.01309810      -0.04787020       0.02443340
H       17.82094000      21.07200000       9.33138000      -0.08670400      -0.10602600       0.01265690
O       14.27394000      11.77880000      23.91710000       0.04415490       0.03149070      -0.02784690
H       13.54364000      11.16730000      22.41120000      -0.03448920      -0.02864910      -0.01310200
H       15.49024000      12.88020000      22.71240000      -0.00750767      -0.01664780       0.04141880
O        5.41272000      16.32556000       4.18692000      -0.03006790       0.05418210       0.00043932
H        5.28942000      15.79376000       5.87112000       0.00049806      -0.01257550       0.02841600
H        6.38372000      15.09176000       3.47512000       0.02770330      -0.04246480      -0.02833820
O       19.83616000      19.86950000      15.50908000       0.01280000       0.00916038       0.00476178
H       19.88346000      21.64720000      15.05608000       0.01436420      -0.00159599      -0.00409890
H       18.10036000      19.71140000      15.90768000      -0.02567650      -0.00940460       0.00531371
O        8.48866000       3.99402000       3.69216000       0.08264090       0.03906100       0.02586900
H        8.07576000       3.65592000       5.37637000      -0.02223350      -0.01547300       0.02064650
H        7.39786000       3.47002000       2.45853000      -0.04968290      -0.02710720      -0.03628860
O        6.85858000      18.83190000      11.74062000      -0.00182410      -0.06045650       0.03813760
H        8.13088000      17.60680000      11.04412000      -0.00707295       0.02499640       0.00740629
H        6.11728000      17.60710000      13.10832000       0.00696957       0.03730040      -0.03838810
O        6.79822000       7.89129000      14.28646000       0.06351030       0.01860770       0.04786230
H        7.25002000       9.77497000      14.97706000      -0.01268740      -0.04906100      -0.02304310
H        8.53792000       7.02571000      14.71736000      -0.04145680       0.02435280      -0.02510480
O        5.32534000       1.96742000       0.47522500       0.06242200      -0.08235870       0.08291260
H        4.80047000       2.53723000      23.47013000      -0.03260290       0.02941510      -0.09692550
H        6.37091000       0.35065300       0.11809100      -0.03031150       0.04739810       0.00695664
O       20.56578000       4.03086000       0.03988000      -0.05908670       0.05736390       0.01800200
H       19.09018000       5.80941000       0.54328000       0.04932300      -0.06566280      -0.00136745
H       21.02518000       3.12166000       1.58448000      -0.00337460       0.01433580      -0.01542090
O       23.91779000      12.35466000       5.81468000      -0.06737140       0.02245400      -0.04837580
H       22.22028000      11.37776000       5.31408000       0.05794000       0.03364670       0.02727150
H       23.59504900      14.26176000       5.01048000       0.01715010      -0.06429100       0.02714930
O       10.40190000      14.98218000      10.88490000      -0.03207240       0.01038450      -0.00764020
H        9.30257000      14.02498000       9.73145000       0.00792482      -0.00095254       0.00450025
H       11.93100000      14.10248000      11.08100000       0.02137910      -0.01247430       0.00092832
O        7.79482000      19.90830000      19.63170000      -0.00111162       0.17853700       0.02510990
H        8.00782000      18.29620000      19.55050000       0.01030650      -0.14852700      -0.00181496
H        8.50742000      20.56670000      21.26780000      -0.01122960      -0.01394400      -0.02336730
O        7.81858000       9.19288000       3.74246000      -0.01699040       0.10700000       0.01407310
H        8.38138000       7.60498000       3.76646000       0.01594150      -0.08985400      -0.00647828
H        6.13508000       9.46918000       3.09376000       0.00206261      -0.01870350      -0.00226708
O       11.55130000       9.37818000      19.86290000       0.02547140      -0.05117580       0.02541360
H       10.63420000      10.14858000      18.55510000      -0.00810082       0.00278820      -0.02915030
H       12.14280000       7.60098000      19.43910000      -0.01012510       0.05057290       0.00051816
O        3.28277000      22.39404000      18.06220000       0.07251270      -0.00173338       0.01689550
H        1.96990000      21.50514000      18.88970000      -0.01715050      -0.01588320       0.01150700
H        5.04687000      21.81384000      18.94930000      -0.06075470       0.01094410      -0.03493120
O       24.44124300      16.92560000       3.76226000       0.07438300      -0.07512060       0.09107070
H        1.84006000      16.75830000       3.71996000      -0.02855220       0.00848473      -0.01727210
H       23.61516900      17.83120000       2.62589000      -0.03867900       0.06369700      -0.07764050
O        1.61669000       0.34486000      13.63140000      -0.02398170       0.00552441       0.10574000
H        2.46686000      24.17716600      12.31000000       0.04283910      -0.03549340      -0.05909900
H        2.20614000      23.82972400      15.24900000      -0.01222270       0.02555880      -0.04714890
O       15.47094000       5.47746000      18.27004000       0.05495850      -0.00471279      -0.01992300
H       17.35034000       5.38086000      17.51324000      -0.07396540       0.00021935       0.01731360
H       15.41284000       4.14136000      19.52724000       0.00425862       0.00130824       0.00358045
O        6.04806000       2.20596000       8.94142000      -0.02408320      -0.01973020      -0.01572200
H        4.72847000       3.36446000       9.57122000       0.01071500      -0.00909424       0.00563823
H        5.15281000       0.45236000       8.67872000       0.02503030       0.03725010       0.01350210
O       14.21524000      15.86688000       2.40712000      -0.02020170       0.06883770       0.04209460
H       13.74244000      14.44568000       1.57329000      -0.00801861      -0.06728380      -0.03880270
H       12.54424000      16.69678000       2.70143000       0.02412580       0.00274265       0.00610068
O       19.70320000      12.44808000      11.92020000       0.01364280       0.06893120       0.16164900
H       20.59930000      14.10168000      11.90160000      -0.00553159      -0.01801020      -0.00640140
H       19.62200000      11.92818000      10.40820000      -0.00286451      -0.05316250      -0.16197400
O        6.89922000      12.69312000       7.68010000      -0.03836050      -0.05668550       0.02766880
H        7.67602000      11.21312000       6.75158000      -0.01710510       0.02554760       0.01017960
H        5.37642000      11.83662000       8.75168000       0.04863770       0.03128350      -0.03567400
O        3.36164000       2.69682000      19.99840000      -0.01890580      -0.00743337       0.01716610
H        2.84824000       1.25778000      18.90840000       0.02285270       0.02447670       0.00589335
H        4.33694000       4.14122000      19.45630000      -0.00059585      -0.01284350      -0.01311140
O        2.12242000      11.12622000      10.53738000      -0.00943991      -0.04537590      -0.01817120
H        2.40272000       9.38402000      11.25908000      -0.00752768       0.03107190      -0.01514490
H        0.93042000      10.85732000       9.04308000       0.02396940       0.01509440       0.03128550
O       17.16970000      15.57060000       6.86528000       0.01912980      -0.01793920       0.00783086
H       18.02160000      13.91240000       6.72018000      -0.01542990       0.01971040       0.00243612
H       16.06030000      15.73410000       5.45828000      -0.00754719      -0.00511492      -0.01680590
O        3.67302000      22.18722000       9.31068000       0.01646000      -0.03559500      -0.00155208
H        4.54832000      20.51522000       9.72558000      -0.01288770       0.04049560      -0.00253247
H        2.27402000      21.71215000       8.20548000      -0.00192146       0.00037239       0.00904797
O       20.04718000       5.86404000       9.37298000      -0.05929680      -0.00773834      -0.03926100
H       18.26168000       5.38681000       8.78238000       0.04335160      -0.00141893      -0.00501981
H       19.60198000       5.63919000      11.06798000       0.01445450       0.00076075       0.04343260
O       13.89682000      15.02914000      15.78779000       0.00651544      -0.04219000       0.08271530
H       14.15562000      14.65154000      17.73957000      -0.00748145       0.01229610      -0.06621230
H       14.10042000      13.32214000      15.05077000       0.00042292       0.01516890      -0.00842765
O        3.09126000       5.16002000      12.07372000      -0.00636738      -0.00133878       0.01106700
H        4.50406000       5.80812000      13.14272000      -0.02117310      -0.00848701      -0.00920234
H        2.04656000       3.86602000      12.97502000       0.02474440       0.01705160      -0.00795418
O       10.72890000       2.17087000      11.33480000      -0.03931280       0.04905070      -0.05547630
H       10.52140000       0.88833200      12.57460000      -0.01992300      -0.01169500       0.00710210
H        8.91528000       2.86788000      10.35110000       0.05531920      -0.05092650       0.04567370
O       14.35314000      21.87620000      21.07608000      -0.05719690       0.01942920      -0.06476700
H       14.55344000      21.07278000      19.36098000      -0.02060520       0.01757520       0.00680876
H       15.67804000      21.09579000      21.75488000       0.07596380      -0.04468630       0.05968530
O        8.75398000      12.02602000      16.13178000       0.03365380       0.03026390      -0.03867760
H        8.17962000      13.06752000      17.48262000      -0.02278160       0.01432430       0.01647240
H        9.53651000      13.36412000      14.98187000      -0.01501290      -0.03637480       0.01872570
O       22.66030000      16.73330000      12.25230000       0.02310010       0.01512680      -0.07233480
H       21.79650000      17.06890000      13.74380000      -0.02042230       0.03099970       0.02439430
H       22.55350000      18.17440000      10.91740000      -0.00373951      -0.03710600       0.04152530
O        9.78924000      22.29740000      14.61288000      -0.06476480      -0.07187540       0.01524310
H        9.37782000      21.55050000      16.36310000       0.01322460       0.02693460      -0.03142560
H        8.29474000      21.12310000      13.66912000       0.05814890       0.03918240       0.01593480
O       23.93690000       3.37056000       6.45378000       0.00666104       0.02519570       0.02597670
H        1.22398000       4.00586000       6.65358000      -0.04326380      -0.00402676       0.00926532
H       22.64190000       4.23576000       7.61778000       0.03771630      -0.01368410      -0.02306130
O       17.08675000       7.76768000       2.06340000      -0.00292706       0.05267090      -0.05311570
H       16.11789000       8.99633000       0.85128200       0.03136930      -0.01675690       0.02345450
H       15.64472000       6.95376000       2.69334000      -0.02020490      -0.03449520       0.01724570
O       14.44410000      19.69624000      16.13000000      -0.05301880       0.06644910      -0.02948660
H       12.86910000      20.78454000      15.03810000       0.05804860      -0.04833570       0.04476130
H       13.93160000      17.94534000      16.27130000      -0.00431726       0.00451441      -0.01412060
O        1.41019000      15.28880000      19.45588000       0.03115760       0.11259000      -0.09826260
H        0.91229200      13.78990000      19.80018000      -0.04833160      -0.14996400       0.06480680
H        1.38353000      14.88080000      17.55198000       0.01377410       0.03431120       0.02883510
O       17.51328000      18.38648000      24.12958100      -0.03502540      -0.00800273      -0.04621180
H       18.73098000      18.81078000       0.77940000       0.05661820       0.02454780       0.03271160
H       16.25108000      17.68318000       0.73781600      -0.01919560      -0.01273450       0.00178560
O       20.06510000      11.31270000      17.23534000      -0.09232350       0.03680500       0.15859300
H       20.62570000       9.75024000      17.45254000       0.02650470      -0.09367570       0.02661550
H       20.64810000      11.68710000      15.81624000       0.06423620       0.05652860      -0.18349100
O       10.32302000      19.06648000       3.88594000      -0.03745920      -0.00380902       0.02084900
H        8.58662000      18.41048000       4.25014000       0.02492990       0.00622872      -0.01349580
H       10.57792000      20.07978000       5.45053000       0.01009530      -0.00801326      -0.00666220
O       11.47820000      20.94904000       8.33948000       0.06118760      -0.08570850      -0.02942230
H       12.67200000      19.51334000       9.12288000      -0.04364500       0.06048390      -0.00960570
H       10.78720000      22.03824000       9.47748000      -0.01516340       0.02990860       0.04693050
O        3.01042000      10.47418000       1.58822000       0.07184640      -0.01850270      -0.18532100
H        1.98755000      10.56958000       2.83100000      -0.11185900       0.01640140       0.12179800
H        2.02533000      10.28128000      24.25595100       0.03302430       0.00449353       0.06360310
O       14.57791000      11.37742000      12.45810000      -0.00719010      -0.03393990       0.02325820
H       14.01622000       9.77152000      13.29350000       0.00599694       0.02064060      -0.02009960
H       16.41205000      11.38192000      12.58680000      -0.00167815       0.00562568      -0.00266091
O       19.46740000       4.41576000      15.05710000      -0.10117700       0.14679500      -0.04402330
H       20.45669000       4.02541000      16.26350000       0.11072100      -0.02265430       0.12994200
H       19.59749000       3.01066000      14.21700000       0.00239441      -0.11815000      -0.08251420
O        1.60138000       9.79112000      20.85603000      -0.10350200       0.05613450       0.02709220
H        0.21288000       8.58712000      20.70839000      -0.00777141       0.01668270       0.00088679
H        2.87438000       8.76402000      20.59993000       0.10929400      -0.06437640      -0.02155930
O       22.60690000       5.76191000      19.98218000      -0.10352000      -0.01804890       0.00315384
H       21.67650000       4.53539000      21.19328000       0.00829909       0.03876090      -0.02302300
H       24.11380000       5.32005000      20.58598000       0.09580270      -0.02814840       0.01964740
O       15.94090000       2.10248000      22.54218000       0.03314540       0.01360670       0.01271970
H       17.80070000       2.32678000      23.10038000      -0.04353710      -0.01269880      -0.01298860
H       15.44690000       0.39508000      22.06348000       0.01121410       0.00374618       0.00000271
O        7.28802000      12.15890000      24.02950000       0.01719220       0.01080370       0.00170519
H        8.71642000      11.77540000       0.69878000      -0.02963250       0.00069363      -0.01695760
H        5.64872000      12.06790000       0.40448000       0.01456360      -0.00619727       0.00089377
