192
Lattice="24.22862 0.0 0.0 0.0 24.22862 0.0 0.0 0.0 24.22862" Properties=species:S:1:pos:R:3:force:R:3 TotEnergy=-1102.50555 cutoff=-1.0 nneightol=1.2 pbc="T T T"
O       23.44700000       7.88656000      20.05000000       0.15868700       0.03332560      -0.06923290
H       22.57240000       8.63448000      18.83870000      -0.05891230       0.03653890      -0.05450200
H       22.64170000       7.19677000      21.24460000      -0.09470950      -0.07180770       0.12789900
O       18.07140000      24.09610000      17.39210000       0.03378140       0.16805900       0.02285010
H       18.85970000       0.42819700      15.83170000       0.00079380       0.01551900       0.01567320
H       17.90370000      22.58190000      16.92860000      -0.02780730      -0.18726900      -0.03744080
O       16.55520000      16.31870000      11.20360000       0.00468775       0.01618260       0.08543010
H       15.94400000      15.97690000       9.66653000      -0.02214070      -0.01491620      -0.08164190
H       14.99040000      16.29540000      12.20260000       0.01418430      -0.00488043      -0.00710467
O       20.41400000      23.75180000       4.23644000       0.01395700       0.04133880       0.08958180
H       20.28280000      22.70410000       2.96217000      -0.00754241      -0.10032100      -0.07827180
H       20.30340000       0.94840600       3.25073000      -0.00366121       0.06109350      -0.00960446
O        6.94796000      13.20050000      21.85750000      -0.05811750      -0.09786610       0.03678700
H        8.00080000      13.15040000      20.55670000       0.06419100      -0.01099950      -0.07931430
H        6.96632000      14.79560000      22.29840000      -0.00225365       0.10944400       0.04203080
O       16.36730000       7.39371000      12.24790000       0.08530880       0.02609970      -0.01500830
H       17.40480000       9.06142000      11.81430000      -0.04413770      -0.04838580       0.01922190
H       17.85740000       6.12208000      11.99120000      -0.05012880       0.02741750      -0.00080758
O        2.42181000       8.05199000      11.01080000       0.01328630      -0.03642830       0.04546320
H        2.10562000       9.79047000      11.40990000       0.00572337      -0.00064952       0.00374316
H        3.24557000       7.17578000      12.56690000      -0.02400520       0.04202560      -0.05015400
O        5.09535000      22.19060000      14.65150000       0.02350990      -0.00953074       0.01276000
H        3.82806000      21.55810000      13.58940000      -0.02585870      -0.00218627      -0.01642620
H        4.74097000      23.92190000      15.01920000       0.00058174       0.00846114      -0.00056563
O       11.95800000      14.29380000      19.53140000      -0.04062730       0.03159850       0.00931624
H       12.88440000      12.94530000      20.04090000       0.02672510      -0.05767000       0.03537530
H       12.77360000      14.46640000      17.99900000       0.01585210       0.02641410      -0.04103210
O       18.04360000      18.77210000       5.66145000       0.09790540       0.00044808      -0.01115270
H       19.47430000      18.17860000       4.49463000      -0.03667320       0.02620380       0.03079880
H       16.66130000      18.03230000       4.93545000      -0.05520830      -0.02782740      -0.01958990
O       21.67720000      20.88330000      13.48830000      -0.01855800       0.07686490       0.10926300
H       22.16060000      19.86860000      12.31000000       0.06399850      -0.08958270      -0.09792700
H       20.04110000      21.08080000      12.91430000      -0.04819010       0.01372650      -0.00982825
O        8.71025000       0.60433400       5.81045000       0.00455965       0.12102800      -0.11652700
H        9.14689000      23.55520000       6.75005000       0.03991530      -0.09443980       0.07655620
H       10.25790000       1.32777000       4.84886000      -0.04922650      -0.02206630       0.04173020
O        1.69089000      19.87380000      10.57450000      -0.09232580       0.05149800      -0.01745300
H        1.36225000      21.12350000       9.18187000      -0.00562844      -0.01566790       0.02838260
H        3.30240000      19.62250000      10.22710000       0.10159700      -0.03214160      -0.01662990
O       22.01900000      13.42280000      18.59030000      -0.00327152       0.00475495       0.01121490
H       21.76480000      15.19100000      18.07500000      -0.00064445      -0.00291199       0.00371749
H       22.01840000      12.47660000      17.07880000      -0.01045100      -0.00070816      -0.01539900
O       10.09760000      19.37050000      17.50200000       0.05751320      -0.09248430      -0.01443110
H        9.40938000      18.28360000      16.19720000      -0.00297392       0.01693330       0.00911352
H        9.29154000      20.82620000      17.70880000      -0.05419590       0.08026020       0.00368246
O        2.34490000      14.75090000       9.59272000       0.03434780      -0.03212040       0.08460720
H        3.39042000      14.05510000       8.42347000       0.04079580      -0.02268570      -0.04480040
H        1.20622000      15.67010000       8.74297000      -0.05821910       0.04712340      -0.03153550
O       18.69040000       2.11020000      23.20890000      -0.04179780      -0.05856280       0.01840820
H       17.13110000       1.77524000       0.02969100       0.02871670       0.02235620      -0.00895486
H       18.84150000       0.27076400      22.74830000       0.01127490       0.03555460      -0.00690255
O       13.75350000       1.64536000       2.00084000      -0.01573360      -0.02327640       0.05768020
H       12.92660000       0.33204500       3.15414000       0.03254720       0.03611020      -0.02574970
H       13.31000000       0.94038000       0.46313700      -0.01336760      -0.01864070      -0.04182280
O       19.47380000       4.12135000       9.73067000       0.03887570      -0.01915750       0.13463400
H       21.14070000       3.24289000       9.82620000      -0.01163650       0.00561674       0.03791960
H       19.70030000       3.90060000       8.13215000      -0.02264010       0.00718536      -0.16878300
O        8.13800000      10.16920000       1.60132000      -0.02797520       0.00116544      -0.00419205
H        9.76360000      10.66640000       1.99514000       0.03910630      -0.00212283       0.01044390
H        7.93606000      11.16200000       0.07508400      -0.01523480      -0.00210507      -0.00250073
O        8.58441000       8.26851000      18.92170000       0.20850800       0.04681610      -0.10123900
H        7.47498000       7.27392000      19.45520000      -0.14149700      -0.12828900       0.07373140
H       10.30250000       6.38643000      17.76230000      -0.07265840       0.08021100       0.04609530
O        3.11921000      19.97670000      19.15950000       0.03706030      -0.02388960      -0.01606760
H        4.08182000      20.12070000      17.49200000      -0.02132750       0.00363971       0.03889650
H        4.17140000      18.84110000      20.21700000      -0.01841670       0.01949680      -0.02033420
O        0.58777300       0.52114700      20.55640000      -0.01831690      -0.04002140      -0.01252390
H        0.20098000       0.66068800      18.74000000       0.00118160       0.00341504       0.02314600
H        0.21586100      22.90020000      20.89710000       0.01527480       0.04400970      -0.00653967
O       23.58310000       4.79496000       0.68424800      -0.03493520      -0.05647050      -0.02644720
H        1.11670000       4.46048000       1.04857000       0.00287361       0.00923808       0.00771321
H       23.01180000       3.07195000       0.00828000       0.00894534       0.04941250       0.01324560
O       15.92140000      18.61670000      16.36400000      -0.04723320       0.03718400      -0.00868085
H       16.74050000      17.71000000      14.95280000      -0.02425630       0.02656800       0.01155500
H       14.24140000      19.77060000      16.05170000       0.06752370      -0.06099120      -0.00304591
O       22.00580000      10.73460000       4.18448000       0.03942450       0.02129840      -0.06998670
H       20.55960000      11.65990000       4.62059000      -0.02425260       0.00509782       0.00615192
H       22.28700000      11.35030000       2.26776000      -0.00965932      -0.02601430       0.06735860
O       15.43490000      14.65500000      23.54510000       0.03439560      -0.00859476       0.02000190
H       17.23700000      15.25660000      23.85470000      -0.06402920       0.00250068      -0.02695130
H       14.40220000      15.48120000      22.29280000       0.02299030       0.01283840      -0.00402643
O       13.54520000       2.10313000      17.07660000      -0.12212300       0.05294980      -0.09822110
H       13.32150000       3.84089000      16.30640000       0.01552450      -0.04687230       0.01720240
H       14.80790000       2.09125000      18.12860000       0.10504200       0.00073804       0.07476180
O        3.78037000       4.59575000       2.36645000       0.04912460       0.04028850      -0.01025660
H        4.77765000       5.48280000       1.03475000      -0.01621510      -0.03112570      -0.00499218
H        4.14663000       6.01431000       3.46550000      -0.01420290      -0.00959044       0.02424190
O       16.66770000      19.89580000      21.61460000      -0.02280780      -0.00351106       0.02593830
H       16.79340000      20.87110000      20.15510000       0.01843310       0.00866611      -0.02780710
H       14.83790000      19.93460000      21.77770000       0.00864751      -0.00582891       0.01244860
O        9.45461000       0.61538000      19.86270000       0.01224300       0.03878150      -0.00564229
H        8.52260000       2.00053000      20.60550000      -0.01086290      -0.01372170       0.00411485
H       10.64000000       1.70624000      18.89120000      -0.00548802      -0.03174560       0.00534333
O        6.56272000      17.27550000       1.71718000       0.09829490      -0.13572000       0.08929480
H        5.84923000      18.60120000       1.22979000      -0.09417270       0.16274900      -0.06960830
H        7.08301000      17.77530000       3.45347000      -0.00517896      -0.02378300      -0.02112570
O        5.54605000      23.44150000       0.77379100      -0.04838440      -0.09425630      -0.00922833
H        6.53274000      23.07580000       2.15597000       0.02308930      -0.01517790       0.04485060
H        6.07116000       0.75771600       0.47918400       0.02548510       0.10760700      -0.02963560
O       19.86910000      11.46550000      23.71240000       0.12470600      -0.09302820      -0.13224700
H       18.82990000      12.32340000       0.31658000      -0.13091900       0.08992510       0.10332700
H       19.84920000      12.19100000      21.99060000       0.00959796      -0.00814200       0.01912880
O       19.82480000       5.60555000       4.63559000      -0.04581340       0.00132344      -0.00767773
H       21.43200000       5.43840000       3.92375000       0.03114690       0.00132520      -0.01622780
H       18.79460000       6.13078000       3.17252000       0.01298450      -0.00443891       0.02417560
O        3.92835000      12.21900000       4.04653000      -0.22764000       0.14187800       0.01498600
H        5.10942000      11.24960000       4.17246000       0.21599200      -0.15856900       0.00657179
H        2.70873000      11.35360000       5.16412000       0.00451920       0.01655040      -0.02085640
O       18.14900000      22.05910000       9.65686000      -0.00205180       0.03367330       0.02933700
H       18.35360000      23.88320000      10.28030000       0.00139666      -0.04796080      -0.04425750
H       18.62580000      21.58190000       7.92026000      -0.00549805       0.02251760       0.01636830
O        6.07484000       6.40365000       7.08066000      -0.01158610       0.04481390       0.01013280
H        7.00830000       5.22570000       6.15522000       0.00007974      -0.03188900      -0.00254408
H        4.53161000       5.92671000       7.91508000       0.01304820      -0.01156920      -0.00639238
O        6.21739000      15.39250000      14.08110000      -0.03044590      -0.01077670      -0.01988540
H        4.60670000      15.33430000      14.96170000       0.01401790       0.00422402       0.02115000
H        5.48902000      14.81890000      12.49040000       0.01245660       0.01068110      -0.00669621
O        5.23128000       3.44462000      15.64460000      -0.06260600       0.04597850       0.04942880
H        3.92350000       4.33635000      17.02880000       0.06090860      -0.03957210      -0.05389170
H        5.47212000       4.80730000      14.43420000       0.00691278      -0.00783452       0.00762744
O       13.34670000       3.63250000       7.62763000       0.08367220       0.05580360       0.04092830
H       14.95090000       4.59717000       8.62321000      -0.05893930      -0.04543190      -0.05397050
H       12.31110000       3.88294000       9.06418000      -0.02558730      -0.00788729       0.00804298
O       14.08320000      15.94650000       4.08738000      -0.00249021      -0.02637900       0.07862400
H       13.15100000      14.60980000       5.09100000       0.02363860       0.02881870      -0.02413400
H       13.30850000      16.13610000       2.55502000      -0.02021870      -0.00513043      -0.04856950
O        0.32995600      15.17350000       0.30615100      -0.05110080      -0.00567354      -0.07957240
H        1.61905000      15.05880000       1.38396000       0.07216540      -0.01215370       0.06123240
H        1.01865000      14.45480000      22.94650000      -0.01745210       0.01294080       0.02236200
O       11.35940000      14.71390000      13.29960000      -0.04226180      -0.02002900       0.04597230
H       11.40760000      13.81750000      14.96400000       0.01430240       0.01177060      -0.03291660
H        9.45714000      14.71880000      13.28850000       0.03259880       0.01022220      -0.01179070
O        4.14629000       4.74611000      21.51330000      -0.03810890      -0.01438270      -0.02379090
H        3.11594000       3.17878000      21.56020000       0.02193380      -0.00091851       0.00514930
H        2.72022000       5.66715000      20.77250000       0.01366510       0.01501990       0.00942120
O       19.86740000      12.46290000      13.03140000      -0.08618910       0.06197880       0.02458290
H       19.67750000      14.07650000      12.07280000       0.01236900      -0.03616800       0.00870805
H       21.18040000      11.47070000      12.69890000       0.07385470      -0.03472200      -0.03482080
O       13.20050000       9.35573000      17.05660000       0.02890190      -0.03149670      -0.07060490
H       13.23080000       8.98183000      18.72710000      -0.00453129      -0.00362844       0.07118170
H       14.32430000       7.94968000      16.46760000      -0.01184310       0.03776910      -0.00342664
O       21.85290000      14.73550000       8.09061000       0.01755660      -0.00000777       0.07565900
H       20.62710000      15.79540000       7.52767000      -0.04115890       0.03225970      -0.03263830
H       22.71170000      13.75460000       6.96006000       0.01252980      -0.02869270      -0.04669640
O        8.41489000      16.25840000       7.46783000      -0.09092630      -0.12237600      -0.05017630
H        9.09263000      14.52940000       7.69776000      -0.00205476       0.03081230       0.00180795
H        9.41114000      17.43290000       7.99742000       0.09104230       0.09409430       0.05184650
O       16.79100000       7.29678000      21.35870000      -0.00282729       0.06765890       0.00484150
H       17.40020000       5.72933000      21.63620000       0.02470400      -0.08071380       0.00476051
H       17.96200000       8.23374000      22.51210000      -0.02624240       0.00533991      -0.01282840
O       11.78350000       6.69743000       0.10508000       0.07697900      -0.04795410      -0.07720160
H       13.48620000       6.41424000      22.06360000      -0.04989680       0.02152840       0.08730450
H       12.48140000       5.05158000       0.76739800      -0.01559590       0.03240050      -0.00193095
O        6.90343000       9.08788000      14.51950000      -0.03440040       0.06036480      -0.02899220
H        7.62006000       9.25124000      16.14730000       0.01116010      -0.01433050       0.03278070
H        6.52242000      10.94140000      14.25310000       0.00080218      -0.04126740      -0.00358568
O        9.07887000      21.26330000      10.06660000      -0.16836300      -0.06656280      -0.06503640
H        7.76072000      20.56420000      11.25660000       0.04017250       0.02319040      -0.02104100
H       10.42810000      21.69570000      10.82730000       0.13027700       0.04436070       0.08473070
O       10.80090000       9.01856000      11.51530000       0.08670340      -0.02353890       0.06177420
H       12.90300000       8.08426000      12.19780000      -0.09182010       0.04783430      -0.03075690
H       10.15800000       9.95890000      13.08860000       0.02475600      -0.03603220      -0.04590000
O        0.86934300       2.82267000       9.89639000       0.00587841      -0.04703840       0.00948422
H        0.31834900       4.48011000      10.14390000       0.01347740       0.03204730      -0.01512840
H        1.97297000       2.30014000       8.50230000      -0.02335010       0.02133740       0.01305620
O       23.80070000       3.34969000      15.77690000      -0.01122750       0.05694970      -0.05576270
H       22.24530000       5.21019000      14.88610000       0.08433220      -0.08660570       0.03055890
H        1.32158000       2.99345000      14.75680000      -0.07402960       0.02616930       0.01929160
O        1.28553000      23.63750000       6.05059000       0.03517470      -0.05574890       0.16150200
H        2.06167000       0.32338000       4.98120000       0.09270190       0.09347540      -0.10781100
H       24.19640000      23.16170000       5.20679000      -0.12257100      -0.04064170      -0.05965070
O       12.12510000      20.52080000       0.36325000      -0.10137500      -0.00418172      -0.07410770
H       12.35600000      19.94520000       1.97871000       0.00405493      -0.02051280       0.04933080
H       10.10290000      19.96260000      24.06890000       0.09519250       0.02515050       0.02731700
O       15.92210000       9.97296000       3.01152000       0.00218796      -0.03648260       0.09624250
H       15.79070000       8.99927000       5.22880000      -0.00280681       0.04293670      -0.11032500
H       14.32010000       9.83228000       2.12207000       0.00425157      -0.01177340       0.01401360
O       11.33220000      11.62770000       6.75984000       0.04665190       0.01154230       0.09157290
H       10.64720000      11.69610000       5.27476000      -0.06803530       0.02959840      -0.12353600
H       11.63260000       9.89631000       6.59506000       0.01364730      -0.03712470       0.03071290
O       13.66550000       0.21178000      12.02320000       0.04242010       0.12214900      -0.12950400
H       14.59390000      23.13440000      11.59780000       0.06379080      -0.08759400      -0.03120370
H       12.78130000      24.12664700      13.29230000      -0.10331900      -0.03731010       0.16247100
O       21.59110000      19.53280000       1.01793000      -0.00822202      -0.02395730       0.00815013
H       20.16950000      18.40570000       0.54158000       0.03032250       0.02032380      -0.00133608
H       23.07320000      18.45230000       1.38151000      -0.02412490       0.00731236      -0.01555800
O       21.72280000      18.66200000      18.33820000       0.07115540       0.00569146       0.00650876
H       23.61270000      18.52500000      19.08500000      -0.06669090       0.01314380      -0.03424510
H       21.86470000      19.70860000      16.74770000       0.00216071      -0.02172540       0.02536850
O        3.17361000      14.09210000      18.36060000      -0.08335030      -0.05202060      -0.10271100
H        3.57447000      13.00480000      19.61400000       0.03452030      -0.03643810       0.06378120
H        1.83566000      12.30180000      17.41940000       0.05276780       0.09022940       0.03714460
