192
TotEnergy=-1103.13089000 cutoff=-1.00000000 nneightol=1.20000000 pbc="T T T" Lattice="24.55800000       0.00000000       0.00000000      -0.00000100      24.55800000       0.00000000      -0.00000100      -0.00000100      24.55800000" Properties=species:S:1:pos:R:3:force:R:3:Z:I:1
O              10.62340000      6.68910000     24.21630000     -0.03923690     -0.01159610     -0.05332830       8
H              10.02360000      6.16089000     22.44770000      0.02854850      0.00602145      0.03528600       1
H               9.14330000      7.76960000     24.51230000      0.01689020      0.00636721      0.01276330       1
O               3.19348000     16.20110000      8.00089000      0.00737212     -0.00364275     -0.01780010       8
H               1.86643000     15.80110000      9.10402000     -0.02782600     -0.01684080      0.01656060       1
H               4.12119000     17.32530000      9.03907000      0.02007630      0.01593130      0.00640860       1
O               9.47390000     16.79800000     22.80230000     -0.01893440     -0.03228330      0.03929360       8
H               9.60040000     17.67600000     21.28190000      0.02274280      0.02733510     -0.01555710       1
H              10.52560000     17.26760000     24.24500000     -0.00447096      0.00888593     -0.02815170       1
O              22.34700000      5.01864000     22.67690000     -0.06116730     -0.08253670     -0.00663700       8
H              22.70780000      3.12248000     22.96990000     -0.00570785      0.05135900     -0.00369932       1
H              23.80630000      5.87240000     22.87530000      0.06725890      0.02893700      0.01332540       1
O              19.60270000     13.99390000     18.12770000     -0.00327811      0.00844633     -0.02782920       8
H              19.35020000     14.71100000     16.39310000      0.01147850     -0.00823040      0.02718380       1
H              17.96040000     13.40340000     18.58290000     -0.00780630     -0.00728418      0.00441836       1
O               1.73047000     17.15500000     18.67100000     -0.03337900     -0.00350619      0.01655720       8
H               3.15136000     17.47560000     17.65200000      0.02110860     -0.00139545      0.00270984       1
H               2.13176000     17.11050000     20.49990000      0.01318770      0.00720230     -0.02108720       1
O               7.21977000     16.29060000     15.57010000      0.03142830     -0.04265230      0.03700080       8
H               6.57280000     17.31020000     14.30310000      0.00211773      0.01587010     -0.03546280       1
H               8.92498000     15.49200000     15.19890000     -0.03588950      0.02971960     -0.00401450       1
O              19.45380000      7.41971000      3.38894000      0.01305670      0.02518130      0.02263840       8
H              19.08250000      6.28393000      2.10134000     -0.01622910     -0.02649210     -0.02455530       1
H              21.25270000      7.61600000      3.17334000      0.00528479      0.00466267      0.00489321       1
O               3.98978000     17.29600000     23.23700000      0.05769220     -0.00141868      0.00651732       8
H               4.62879000     18.72170000     24.22660000     -0.02460820      0.00041184     -0.00601035       1
H               5.76537000     16.76100000     22.74780000     -0.03757070     -0.00287073      0.00465821       1
O              17.35740000     19.11730000      9.52190000     -0.00421366      0.08139090     -0.02682270       8
H              17.44840000     21.09130000      8.77472000     -0.00995538     -0.08995790      0.02754000       1
H              15.55210000     18.70000000      9.52423000      0.01143800      0.00662022     -0.00253997       1
O              22.98840000      4.04872000     12.82470000     -0.00243511     -0.05493250      0.03711110       8
H              -0.37693400      3.01408000     11.91760000      0.00039468      0.01779030     -0.00565476       1
H              22.62190000      5.58020000     12.07880000      0.00278652      0.03359640     -0.03165700       1
O               4.62495000      1.40240000      5.39264000      0.07690360      0.00588109      0.00564189       8
H               5.38666000      2.48227000      4.11351000     -0.01936390     -0.00550182      0.00458645       1
H               2.95927000      1.08376000      5.11431000     -0.05960370      0.00071526     -0.00993595       1
O               5.24103000     22.62750000     23.61240000     -0.06388900      0.04169740      0.00957415       8
H               6.33777000     23.44530000      0.15240600      0.05410160      0.00867427      0.01773660       1
H               3.84319000     23.86650000     24.22430000      0.01465790     -0.04624670     -0.03566870       1
O              21.92160000      8.18449000     17.77750000     -0.01761860     -0.00298923     -0.08362890       8
H              21.77830000      9.89910000     17.17380000      0.00773763     -0.00331350      0.03165740       1
H              22.25420000      7.59260000     19.36410000      0.00739021      0.00705798      0.05134780       1
O              15.13460000     24.10480000     17.81020000      0.02872410     -0.02788540     -0.02254630       8
H              14.37700000      0.82580000     18.70200000     -0.02401870      0.03564830      0.02273490       1
H              14.20990000     22.60770000     18.20010000     -0.00505014     -0.01035990      0.00350306       1
O               8.62348000      8.86690000      7.93034000      0.01000670     -0.02853530      0.01696620       8
H               9.38091000     10.39760000      7.53217000      0.01854080      0.03144370     -0.01367960       1
H               6.88680000      9.17559000      7.66821000     -0.02457540     -0.00082467      0.00164541       1
O               2.86643000     10.70830000      7.68169000      0.02724900      0.04178450     -0.01114510       8
H               3.49415000     12.53210000      7.87160000     -0.01856070     -0.04093680     -0.00292099       1
H               2.70375000     10.53390000      5.85403000     -0.00612048      0.00060075      0.01205390       1
O              20.07800000     13.04710000      7.04317000      0.00444194     -0.01552890     -0.02809410       8
H              20.72870000     12.44320000      8.68845000      0.01226410      0.01136310     -0.02684790       1
H              20.96990000     12.45180000      5.44230000     -0.01336490      0.00957573      0.05717610       1
O              10.18530000     12.05000000     19.24120000      0.04005620      0.00942811     -0.08014080       8
H              11.13360000     12.75730000     17.50660000     -0.04413160     -0.02085000      0.08717610       1
H               9.71890000     13.42890000     20.30430000      0.00493098      0.01112520     -0.00160628       1
O              16.18470000      5.51557000     23.72850000      0.04789290     -0.04140740      0.00110429       8
H              17.38710000      6.61357000     22.91180000     -0.02075040     -0.00112461     -0.00253876       1
H              14.58170000      6.08406000     24.17730000     -0.02930160      0.02827030     -0.00251336       1
O               3.33799000      4.38149000     19.30400000     -0.04857660     -0.03686110     -0.00456382       8
H               1.79125000      3.24774000     18.93360000      0.04563110      0.02254290      0.01668640       1
H               3.03052000      5.69374000     18.12140000      0.00447291      0.01146720     -0.00969690       1
O              15.04620000      9.97497000     19.79080000      0.22407400     -0.03971320     -0.04600090       8
H              13.44800000     10.05060000     19.86880000     -0.17542100      0.00141934     -0.00160606       1
H              15.79840000      8.82126000     18.34820000     -0.04073790      0.03575410      0.05020550       1
O              20.10340000     16.95720000     13.50540000      0.02348790     -0.05793320      0.00613853       8
H              20.46270000     18.24930000     14.58320000      0.01848310      0.04417490      0.05019370       1
H              19.03170000     17.70880000     12.37760000     -0.04188000      0.02157170     -0.05147850       1
O               7.62986000     23.58970000     13.52060000     -0.04649280     -0.02969880     -0.01574600       8
H               7.32907000     23.55880000     15.26720000     -0.02442260     -0.01934640      0.03331050       1
H               8.95341000      0.09027900     13.80070000      0.06954550      0.05012000     -0.01883430       1
O              10.95560000     23.83520000      6.62083000      0.06927870     -0.00367440      0.01113480       8
H              10.31350000     24.14700000      4.99634000     -0.01232800      0.00464203     -0.02864710       1
H              12.90440000     23.84790000      6.29760000     -0.05357720     -0.00096325      0.01390640       1
O               6.29421000      7.09237000     13.98080000      0.07558390      0.19176500      0.02988100       8
H               8.39855000      8.80736000     12.88500000     -0.06090340     -0.08131600      0.03479240       1
H               5.97411000      5.50403000     13.61970000     -0.00634628     -0.10817400     -0.05466310       1
O              11.75270000      2.45862000     14.08900000     -0.01430990      0.07564640     -0.06528710       8
H              13.03080000      1.20773000     13.96370000      0.02018940     -0.00089085     -0.00941640       1
H              11.93270000      3.90609000     12.37030000     -0.00324813     -0.08569230      0.07125880       1
O              11.97340000      3.88769000      8.53437000      0.04216080     -0.02695940      0.01686020       8
H              10.98460000      2.63152000      7.63088000     -0.00783034      0.00909574      0.00389840       1
H              11.50450000      5.56529000      8.71093000     -0.03076600      0.02587260     -0.01803070       1
O              17.85030000      4.16323000      8.06807000     -0.01490100     -0.00994857      0.00142876       8
H              16.02790000      4.11613000      7.82081000      0.00448894     -0.00042032      0.00613386       1
H              18.36280000      5.64563000      7.18909000      0.00849006      0.00577099     -0.00780695       1
O              12.25220000     14.60400000     14.46880000     -0.02504180     -0.09381910      0.00081291       8
H              11.94050000     12.75760000     13.67810000      0.01356210      0.04708430      0.04322670       1
H              12.60760000     15.21870000     12.88230000      0.01465490      0.04427410     -0.04751780       1
O              23.54090000      0.54801300      6.84785000     -0.00313548      0.10149700      0.02711770       8
H              22.15470000      1.67498000      7.57725000      0.03786320     -0.02952620     -0.02194150       1
H              22.84770000     23.57510000      6.59994000     -0.03239550     -0.07363480     -0.00949399       1
O              14.86540000     10.54580000      7.41685000     -0.02807990     -0.00573593      0.01305450       8
H              15.02000000      9.53975000      5.95820000     -0.00398108     -0.01232970     -0.01679380       1
H              16.42990000     11.36810000      7.44833000      0.02995910      0.01981170      0.00386029       1
O              16.94250000      1.35901000     12.92480000      0.06053410     -0.00168569     -0.01856630       8
H              18.10680000      1.88393000     11.55130000     -0.03080970      0.00682965      0.00151603       1
H              18.37110000      0.61345700     13.83120000     -0.02456260     -0.00217753      0.01518210       1
O              23.12180000     19.24050000      6.35673000      0.00762189      0.02620120     -0.01434260       8
H               0.03889600     18.60100000      7.17059000      0.00607306     -0.00565734     -0.00124823       1
H              21.73130000     18.25650000      6.82369000     -0.01973500     -0.01869040      0.01361510       1
O              24.44840000     24.48270000     24.63390000      0.01951380      0.05440140     -0.04238650       8
H               0.33856000      0.23524700      1.73015000     -0.00095932     -0.00225756      0.04142860       1
H              23.81480000     22.89310000     24.35880000     -0.01977240     -0.04832940      0.00448591       1
O               4.25411000      3.10629000     11.21160000      0.02049080     -0.03026320      0.02522070       8
H               5.38508000      1.72259000     11.88680000     -0.02323680      0.02263360     -0.01826350       1
H               4.73800000      3.34420000      9.49142000      0.00077642     -0.00408613     -0.00693472       1
O              12.00080000     18.49300000      3.47227000      0.00983350     -0.00252912     -0.00608173       8
H              13.70070000     18.30380000      2.82916000     -0.00157493     -0.00107805     -0.00391433       1
H              12.20410000     19.78680000      4.72427000     -0.00791405      0.00185996      0.00360376       1
O              11.86430000      9.25368000     13.30940000     -0.00780273      0.00712765      0.01992660       8
H              11.68350000      9.04540000     11.58460000     -0.00357946      0.00375133     -0.05056750       1
H              13.18180000      8.04674000     13.63180000      0.00838333     -0.00273823      0.01925900       1
O               6.24908000     20.40840000      4.17182000      0.03123090     -0.02678060     -0.03196140       8
H               5.71348000     22.13540000      4.31696000      0.00660166      0.00445297     -0.00536191       1
H               7.32986000     20.09550000      2.60027000     -0.03156760      0.02073130      0.04633390       1
O               9.87961000      1.23604000      1.36779000      0.06084480     -0.15485700     -0.04671880       8
H               9.77271000      2.86887000      1.19310000     -0.00664249      0.13001100     -0.01523400       1
H              11.28240000      0.67096900     -0.06774200     -0.05637400      0.02177750      0.06523980       1
O              15.60410000     23.83450000      0.48260700     -0.00384804      0.16879600      0.03359410       8
H              15.79780000     22.33580000     24.26340000      0.02340500     -0.05488900     -0.05583560       1
H              16.44450000      1.54030000     24.03590000     -0.02916990     -0.10354300      0.03164880       1
O              22.66390000     13.64880000     23.14370000     -0.02716280     -0.00675032     -0.07291380       8
H              20.98490000     13.58920000     23.71430000     -0.02830360      0.00305508      0.03984790       1
H              21.79860000     13.62280000     21.33850000      0.04967630      0.00359263      0.03251890       1
O              19.40300000     23.86790000     21.40190000     -0.00963266      0.04988300      0.02597570       8
H              18.09140000     23.86270000     20.19360000     -0.01242630     -0.00471313     -0.01764940       1
H              20.35360000     22.44270000     21.15910000      0.02688050     -0.04115270     -0.01567510       1
O              17.03550000     12.26630000      0.41187800     -0.02425030     -0.07945340     -0.09229020       8
H              16.90790000     10.32700000     23.82940000     -0.01028900      0.09991130      0.03144150       1
H              17.91160000     11.36690000      1.59479000      0.03282450     -0.01671430      0.06176470       1
O               3.19483000     11.68000000     14.44790000      0.01995140      0.10652700      0.05245370       8
H               4.63889000     12.77160000     15.37290000     -0.06235490     -0.02222140     -0.03122670       1
H               4.23565000     10.38360000     14.13990000      0.04150540     -0.08640740     -0.02458160       1
O              13.97210000     18.52270000     18.91890000     -0.00842266      0.00187275     -0.01912090       8
H              14.04280000     17.83080000     17.21180000      0.00135779      0.00210696      0.01772800       1
H              15.42640000     17.94140000     19.81200000      0.00512658     -0.00124071      0.00202086       1
O               3.31664000     11.43080000     20.49890000      0.03381440     -0.00675881      0.04338180       8
H               2.03569000     12.53490000     19.97680000     -0.01450440      0.00418332     -0.02195520       1
H               3.77081000     10.00300000     19.52320000     -0.01269200      0.00357598     -0.01869190       1
O              16.90650000      6.47767000     15.25690000      0.00209746      0.03518670      0.00778741       8
H              18.62460000      6.99180000     15.04140000      0.00801433      0.01627500      0.01134800       1
H              17.08180000      4.95977000     14.40210000     -0.01510340     -0.04975450     -0.01730160       1
O              12.26190000     16.78330000      9.09165000      0.09830690     -0.01769770      0.01051710       8
H              10.62850000     17.25420000      9.31805000     -0.06577380      0.00653014     -0.00471298       1
H              12.89950000     15.53680000      7.91527000     -0.02895620      0.00782264      0.00154612       1
O               8.87179000     24.26060000     19.17190000      0.02928790     -0.05821010     -0.00708213       8
H               7.38144000     23.66570000     19.93480000     -0.01802600      0.00519734      0.01345760       1
H               8.86254000      1.40473000     18.83000000     -0.01391290      0.05495750     -0.00285111       1
O               6.60960000     10.43780000      0.45698700     -0.03445830      0.02253820     -0.07855730       8
H               5.84336000     11.50050000     23.23430000      0.02622700     -0.04245440      0.08245430       1
H               6.93225000     11.57530000      1.84796000     -0.00162049      0.00960366     -0.00727932       1
O               7.93677000     14.32440000      4.36697000      0.02907760     -0.04959950     -0.02076980       8
H               6.59605000     14.92660000      5.27592000     -0.03828000      0.03055990      0.02340340       1
H               9.04762000     15.59930000      3.81264000      0.00658807      0.01929350      0.00071894       1
O               9.66853000      4.97121000     18.01540000     -0.03261970      0.03669830     -0.00691892       8
H              10.91170000      4.02192000     17.03220000     -0.01475750      0.01881520     -0.01369820       1
H               8.50755000      6.23721000     16.94770000      0.04505910     -0.05260650      0.02222640       1
O              23.40000000      1.15088000     17.69380000     -0.00371687      0.05247660      0.00617190       8
H              22.21320000      2.00085000     18.83900000      0.00176402     -0.02583260      0.00020864       1
H              23.76340000      2.71050000     16.74210000     -0.00180720     -0.02184330     -0.01395710       1
O               4.08426000      5.12918000      0.89781100      0.03878460      0.12114800      0.05504860       8
H               4.11965000      4.31771000     23.96250000      0.00203581     -0.03175850     -0.07361340       1
H               5.05538000      7.05331000      0.50985900     -0.03863090     -0.07905160      0.01653410       1
O              21.96170000     20.64370000     17.92000000      0.01623110     -0.02932460      0.00542068       8
H              22.40740000     21.98900000     16.83850000      0.00232141      0.02185290     -0.00281957       1
H              23.61450000     19.91830000     18.40430000     -0.01794290     -0.00203277     -0.00543049       1
O              16.80580000     18.20830000     24.36540000      0.01725570      0.01352240     -0.00652090       8
H              18.58980000     18.99470000     24.23040000     -0.03952870     -0.04297280      0.00438404       1
H              16.65360000     16.36960000     24.15940000      0.02028790      0.02208340      0.00187616       1
O              16.70450000     23.48250000      5.74194000     -0.00028004     -0.01470250      0.04914390       8
H              17.39220000      0.42736800      6.48364000     -0.00093334      0.00764257     -0.01210960       1
H              16.25040000     23.67350000      4.04127000      0.00087177      0.01152050     -0.04138990       1
O               7.54942000     19.26220000      9.94900000     -0.00126421     -0.04194180      0.02084480       8
H               7.85751000     19.31970000      8.18997000     -0.00605826      0.03016310     -0.01307380       1
H               7.30034000     20.76410000     10.92220000      0.00688446      0.01565410     -0.01405020       1
O              23.47540000     13.86310000     11.29750000      0.03231890     -0.07451940     -0.04069520       8
H              22.97270000     15.43680000     11.97390000      0.00753112      0.00256634      0.03235630       1
H              24.85000000     12.52450000     11.75740000     -0.03875580      0.06780160      0.01116150       1
O               0.14589900      9.71753000      2.19297000     -0.07676400      0.05781730      0.00912728       8
H               1.42230000      8.58018000      1.77642000      0.01497890     -0.01278160     -0.03339160       1
H              23.61580000     10.83900000      0.94116100      0.06178090     -0.04498650      0.02093280       1
O               1.99977000     19.93040000     12.10140000     -0.01409290     -0.02416610     -0.04497920       8
H               0.23423000     19.76390000     12.33760000     -0.01990220     -0.00980610     -0.01461350       1
H               2.27475000     20.66530000     13.61570000      0.03245750      0.03546180      0.06259770       1
O              21.95380000     19.16470000      0.65598700     -0.01415540      0.02349480     -0.01580230       8
H              21.77350000     19.07100000      2.41217000     -0.00894046      0.01167980      0.03490600       1
H              23.22030000     17.95960000      0.50806400      0.02865130     -0.02942620     -0.02208480       1
O              23.04650000      7.95079000      9.18821000     -0.08658420      0.00766337     -0.04106710       8
H              -0.00565100      8.76232000      9.48226000      0.04464960      0.02731700     -0.00091175       1
H              21.99960000      9.09158000      7.98356000      0.04077720     -0.03777360      0.04015300       1
