192
Lattice="23.65143 0.0 0.0 0.0 23.65143 0.0 0.0 0.0 23.65143" Properties=species:S:1:pos:R:3:force:R:3 TotEnergy=-1102.69769 cutoff=-1.0 nneightol=1.2 pbc="T T T"
O        7.13808000      12.55840000       0.33938300       0.00655902      -0.05767370      -0.00913324
H        6.07437000      13.46060000      22.94700000      -0.02037640       0.04972510      -0.01728790
H        7.02399000      11.05280000      22.81140000       0.01875890       0.01459240       0.03124170
O        0.30182000      18.84380000      13.74040000       0.00480634      -0.00313785      -0.00119790
H       22.49510000      18.47390000      14.73730000      -0.00457134      -0.00322050       0.00357999
H        1.47974000      17.56020000      14.26830000       0.00004219       0.00199637      -0.00020244
O        7.75143000      16.21190000      16.52190000       0.15111900       0.13137900       0.12542800
H        6.63282000      15.33270000      15.85690000      -0.15483400      -0.12031200      -0.08571930
H        7.27748000      16.54860000      18.31280000       0.00445058      -0.00654963      -0.03198020
O       22.52850000       2.13688000       6.48501000       0.14518700      -0.08340930       0.25229800
H        0.43564200       2.19808000       7.57807000      -0.00430044       0.03099900      -0.01634300
H       22.05610000      23.64668200       6.56611000       0.01621290       0.01834370       0.01807150
O       12.21620000      13.82850000      15.73210000       0.09672750      -0.08655970       0.02397500
H       12.77470000      12.92630000      17.44500000      -0.01731290       0.02531010      -0.04627300
H       11.04440000      14.94490000      16.16710000      -0.07553070       0.05903840       0.02616620
O        3.23391000       9.51741000      18.04230000      -0.01730670       0.00119919      -0.01504250
H        2.66907000       8.16680000      16.88480000       0.01315340       0.00650416       0.02362800
H        4.56919000       9.10844000      19.20630000       0.00330539      -0.01426150      -0.01026890
O       10.70550000       0.83271100      20.81920000       0.05737810      -0.00587949      -0.07729990
H       12.23710000       0.50903700      19.06640000      -0.07850100       0.00151364       0.07995390
H        9.10821000      23.60725900      20.43390000       0.02009950       0.00590254      -0.00433608
O        0.48001200      12.36960000      21.70500000       0.01091530      -0.02048220      -0.00501703
H        1.13213000      10.75510000      20.98570000      -0.01413350       0.02373110       0.00483722
H        0.29319000      11.92110000      23.47190000       0.00501746       0.00272976      -0.00345354
O       11.70370000      18.77510000       1.40058000       0.07129560       0.10033000      -0.05003960
H       11.41410000      17.38470000       2.22918000      -0.04181720      -0.10995400       0.06008380
H       13.52510000      18.85370000       2.02137000      -0.03315220       0.01440110      -0.00836106
O       17.11130000      14.38760000      10.71750000      -0.00834707       0.02498680      -0.00553078
H       17.93180000      13.29960000      11.85400000       0.01446140      -0.01780010       0.00910877
H       15.59160000      13.44810000      10.20380000       0.00108432      -0.00143752      -0.00127163
O       16.25000000      17.21780000      15.62210000       0.02816210      -0.01225160      -0.03719190
H       14.93550000      15.99920000      15.81070000      -0.02088310      -0.01455930       0.00707364
H       16.76140000      16.69830000      13.85380000      -0.00450048       0.00637122       0.02575830
O        3.19769000      21.47870000       9.65600000      -0.04113270       0.04806000       0.13927500
H        4.53661000      20.95450000      10.80230000      -0.00873090       0.00550032       0.00260592
H        3.65479000      20.88830000       8.22798000       0.05271330      -0.04998390      -0.14999900
O        2.42341000      19.19090000       1.37317000       0.00225637      -0.03300290       0.01508010
H        3.48421000      20.28240000       2.28311000       0.01618750       0.01755250       0.00580306
H        2.93759000      17.54170000       2.21620000      -0.02739500       0.02305720      -0.01277850
O       23.38550000       7.71784000       0.17192700       0.01366290      -0.01111240      -0.02507430
H        0.46721300       6.01114000       0.07250700      -0.00157400       0.00955085       0.02144130
H       21.67740000       7.48680000       0.65601600      -0.00858016       0.00208146       0.00568704
O        3.81977000       1.95673000      16.11110000      -0.02036870       0.02099260      -0.02833350
H        4.07412000       1.27233000      17.72820000       0.00480665      -0.01400280       0.02420930
H        2.08353000       2.62292000      16.07690000       0.01930220      -0.00758249       0.00118745
O       11.39770000       5.84513000       5.87237000       0.01869870       0.04149800       0.02364900
H       10.98870000       5.66792000       4.13612000      -0.00648104       0.00293922      -0.00808886
H       11.69130000       7.70817000       5.93766000      -0.00117597      -0.02994720       0.00318697
O        4.92726000       4.87839000       4.89901000       0.04713710       0.02803300      -0.02429090
H        6.14822000       6.44169000       4.53244000      -0.04601050      -0.05748710       0.01046770
H        4.87053000       3.87606000       3.31980000      -0.00065157       0.02125030       0.01486460
O       19.05860000       8.98967000       2.98245000      -0.05911920      -0.04457090       0.01163980
H       17.28360000       9.48658000       3.52394000       0.04470920       0.00396333      -0.00742687
H       18.90200000       7.10902000       3.34873000       0.01030170       0.04246280       0.00182063
O        3.10925000       3.39370000       9.91568000       0.02212980      -0.01046480      -0.05223090
H        4.66105000       3.65228000       8.62161000      -0.05960230      -0.01806660       0.03966920
H        2.37118000       1.66202000       9.82127000       0.04058700       0.01417150       0.01370250
O       14.69500000       6.74694000       0.05147200      -0.13250600      -0.06380080      -0.09176320
H       16.10180000       7.12032000       0.72812900       0.14183100       0.05207990       0.07907140
H       15.32710000       5.59099000      22.37860000      -0.01222510       0.00935804       0.00639934
O       22.37410000       5.29044000      18.45790000      -0.01348790       0.00054791      -0.01698100
H       22.69150000       5.75727000      20.14730000       0.00496718       0.00957415       0.01956980
H       20.59660000       4.87162000      18.44020000       0.00666187      -0.01095450       0.00051403
O       13.37270000      12.01240000      20.33390000       0.02321120       0.01405180       0.01143710
H       12.38430000      10.60600000      20.83330000      -0.00675396      -0.01103400       0.00670199
H       14.93680000      11.98910000      21.34260000      -0.02020950      -0.00163238      -0.01451650
O       21.28960000      12.10470000      13.56210000       0.00076680      -0.00265672      -0.00838484
H       21.89690000      13.40780000      14.69090000      -0.00008614      -0.00331262       0.00597597
H       21.99730000      10.53130000      14.09630000       0.00246239       0.00336389       0.00338915
O        9.42799000       0.59941500      14.55010000       0.00018137       0.00814965       0.00313449
H        7.75586000       1.24324000      14.77490000      -0.01335440       0.00164388      -0.00061625
H       10.41730000       1.68909000      15.64620000       0.00423504      -0.01252910      -0.01182370
O        9.44636000      17.77280000       8.14553000       0.03285020       0.04545190      -0.00921357
H        8.61682000      16.03740000       8.20976000       0.02495490      -0.00509380      -0.01321790
H        9.38418000      18.87120000       9.75353000      -0.00720003      -0.02620560      -0.01904370
O        0.19700200       8.44663000       6.31951000       0.00073418      -0.00082634       0.01502730
H        2.19425000       2.71360000       5.38567000       0.00302047       0.02005020      -0.05747190
H       23.19570000       8.87203000       4.66206000       0.00682924      -0.00096419       0.01215520
O        8.65124000      13.02040000       7.70195000       0.01901130      -0.02398700       0.05468580
H        9.16759000      11.80420000       6.40139000       0.00476741       0.02314240       0.00285937
H        4.55311000      12.16680000       9.14284000       0.00244914       0.11500800      -0.07930090
O        9.25097000       5.33496000       1.45827000       0.02729950      -0.00344356      -0.00451349
H       10.93480000       5.62599000       0.66861200      -0.01918440      -0.01101380       0.01267690
H        9.39293000       3.73620000       2.43257000      -0.00444134       0.00390529      -0.02910620
O       19.24500000       6.36434000       8.51548000      -0.00871688       0.02011990       0.02497390
H       19.66280000       4.99174000       7.47304000       0.00791226      -0.00165863      -0.01186760
H       20.65910000       7.56506000       8.51355000      -0.00063457      -0.01008390      -0.02021640
O        7.95098000      19.66890000      12.61320000       0.05067800       0.01157640       0.02769290
H        8.85877000      18.42720000      13.73490000      -0.03065190       0.01086670      -0.01586810
H        8.73629000      21.23510000      13.41820000      -0.01913630      -0.01804250      -0.01779770
O       23.54410000       0.32061000      21.27260000      -0.04795970       0.00504611      -0.00118889
H       21.67630000       0.15057000      21.60220000       0.03856340      -0.00494176      -0.00689418
H       23.45830000       1.19066000      19.64860000       0.00068132      -0.00433073       0.00826002
O        2.33965000      14.42370000       3.10468000       0.00300043       0.01821110       0.03482290
H        1.91534000      15.01440000       4.91349000       0.01758490      -0.01828770      -0.04503090
H        4.14338000      14.09210000       2.87643000      -0.01311730      -0.00653950       0.01454140
O       10.00770000       6.50260000      16.69510000      -0.08178670      -0.13340300       0.08418870
H       10.90810000       4.80690000      17.22570000      -0.03945850       0.05147410      -0.01496460
H       11.36300000       7.20262000      16.14460000       0.13071800       0.08310630      -0.06140590
O       20.96120000      20.01020000       0.94840400      -0.01359520       0.00406809       0.01867460
H       22.67050000      20.69740000       1.11499000      -0.01182300      -0.01665960      -0.00329264
H       20.33110000      19.76290000       2.71164000       0.01691940       0.00228823      -0.02768050
O       21.45100000      15.30100000      17.61190000      -0.02180570      -0.00658725      -0.00168965
H       19.58660000      15.59170000      17.23960000       0.03669890      -0.00977107       0.02130270
H       21.87690000      14.07950000      18.98420000      -0.01613170       0.02456100      -0.01619800
O       20.96340000      20.31330000       5.87560000       0.03247640       0.00373183       0.04808600
H       19.89050000      19.76290000       7.28423000      -0.00876785       0.00629652      -0.01638280
H       22.53870000      19.39300000       6.37525000      -0.02313000       0.00542717      -0.01745480
O       16.30220000      22.89220000       7.86669000      -0.00632136      -0.12181000       0.07204590
H       14.58310000      23.03055800       8.27697000      -0.02461480       0.00432395       0.01372930
H       16.65730000       0.65176000       7.16685000       0.03626000       0.13526600      -0.07333440
O       14.69920000       7.42775000      14.12760000       0.01936850      -0.00099560       0.01185980
H       14.38770000       8.48261000      12.57250000       0.00747045       0.00120408       0.02355340
H       16.10080000       7.99646000      15.29410000      -0.03283870       0.01127460      -0.03321940
O        0.80651500      16.53850000       8.00248000       0.01287350       0.01380620      -0.00049850
H        1.46487000      18.03470000       8.91872000      -0.00915893      -0.02957960       0.00523593
H        0.46727000      15.13020000       9.11863000      -0.00538853       0.01611380       0.00254781
O       14.69700000      18.70040000       5.84715000      -0.04654270      -0.02482270      -0.00390575
H       15.05670000      20.42240000       6.22297000       0.00647398      -0.00384636      -0.00571926
H       11.29690000      18.24650000       6.84788000      -0.00139222      -0.01890180       0.02717640
O       16.61550000       3.39638000       4.53232000       0.02164740      -0.00817159      -0.05381950
H       15.86880000       3.23164000       2.82785000       0.02644370      -0.00867172       0.01085350
H       15.07280000       3.68036000       5.27403000      -0.04451230       0.02104560       0.04375330
O       19.10630000      14.52560000      23.17250000      -0.01601140       0.00140781      -0.01029760
H       20.66010000      13.57370000      22.98970000      -0.00318843       0.02535230      -0.00235516
H       19.11510000      16.36850000      22.93306000       0.02330300      -0.02654270       0.00227486
O       17.81080000       9.64033000      17.81620000       0.03033330       0.00670751       0.00825877
H       18.75520000      11.23660000      17.72850000      -0.01573950      -0.01534640      -0.00588811
H       19.10110000       8.52042000      18.49320000      -0.00786714       0.00458715      -0.00151361
O       13.05270000      11.38010000      10.84290000      -0.04050180       0.01168080      -0.02534040
H       10.48310000      12.44670000       9.56400000       0.00906030      -0.00989950      -0.02509930
H       13.19000000      12.42100000      12.31860000      -0.01068900      -0.00157860       0.00728537
O        8.15073000       8.51609000      21.18060000       0.01120900      -0.04457600       0.03180390
H        8.68001000       7.28917000      19.89570000      -0.00307266       0.01711060      -0.00410414
H        8.39611000       7.43672000      22.78100000      -0.01517900       0.02558720      -0.03446290
O       14.13500000       2.39341000      16.02760000       0.01592970       0.02170100      -0.02505690
H       14.65980000       1.48011000      14.52600000      -0.00534124      -0.02127710       0.01064250
H       14.99240000       3.95935000      15.46460000      -0.01746900       0.00039193       0.01129950
O       17.14330000       3.17295000      20.13200000      -0.00749088       0.07121400      -0.04374730
H       15.53510000       2.93534000      19.34270000       0.00140931       0.00229604      -0.01795100
H       17.09270000       1.88217000      21.22960000       0.01438250      -0.06717150       0.06552270
O       19.83110000       4.55137000      13.19450000       0.02323590      -0.03918730       0.01325960
H       19.18220000       5.09748000      11.65610000      -0.01608530       0.00453708      -0.05341620
H       19.38400000       5.94659000      14.12030000      -0.01175100       0.03360160       0.04007490
O       11.42020000      11.23790000       3.56794000      -0.14143300      -0.08828230       0.00581818
H       10.55030000      11.61890000       2.03623000      -0.00663260       0.00265839      -0.00303041
H       12.83090000      12.02250000       3.50220000       0.14701600       0.08305290      -0.00177433
O       17.00140000      23.20600000       0.20530800      -0.02726630      -0.02217110      -0.03253430
H       18.19810000      21.82470000       0.35820100       0.01380610       0.00697886       0.00652393
H       15.81210000      22.32880000      22.65970000       0.00805732       0.01604220       0.01999050
O        1.01092000       3.13609000       1.85766000       0.00975633       0.00119078       0.02809450
H       21.48463000       1.93318000       5.40143000      -0.18637300       0.01976010      -0.24722800
H        0.12273400       2.00620000       0.70817200       0.01426100      -0.01020260       0.01024280
O        4.14989000      13.44560000      14.22330000       0.00165224       0.02609880      -0.01704090
H        4.95841000      12.69700000      12.79110000       0.00056171      -0.00333721       0.01218760
H        3.36141000      12.13870000      15.14320000      -0.00346915      -0.01790260       0.01461490
O       21.84670000      23.50980000      16.48560000       0.01575020      -0.00449195       0.01234360
H       20.83800000      23.60680600      15.01450000      -0.00543097       0.00045102      -0.00896082
H       23.16460000      22.26760000      16.22280000      -0.00955114       0.00434200      -0.00588702
O        7.14787000       6.93896000      12.47400000       0.02735890       0.02635050      -0.05411900
H        5.78461000       6.09262000      13.09940000      -0.03695260      -0.02802240       0.02861170
H        8.03977000       7.74526000      13.79450000       0.00497413      -0.00231868       0.01381520
O        6.24018000      20.87580000       4.56404000      -0.03053820       0.02121620      -0.01837380
H        6.61252000      22.32540000       3.48660000      -0.00592563      -0.00662294       0.00026119
H        7.78712000      20.82000000       5.37710000       0.02971920      -0.01639340       0.02424650
O       16.84080000      21.70090000      13.46990000      -0.00528038       0.02008900       0.01636370
H       16.07470000      20.14140000      13.08990000      -0.01292050      -0.01585790       0.00521914
H       17.93650000      21.89980000      12.10740000       0.01562510       0.01132180      -0.02724360
O       14.45780000      20.37510000      19.78420000       0.01154730       0.00765413       0.00050126
H       15.88850000      20.16100000      18.67360000      -0.00639555      -0.00346724      -0.00310123
H       13.57930000      18.79510000      19.78090000      -0.00032162      -0.00002072       0.00283121
O       11.02170000       1.69916000       8.96884000       0.00165924      -0.01017350      -0.00306545
H       11.07400000       3.50661000       8.91032000       0.00063677       0.00573418      -0.00896921
H       10.42320000       1.32411000      10.62510000      -0.00212057      -0.00275642       0.01086610
O       15.97690000      13.92590000       3.33696000      -0.03425520       0.03074620       0.04220020
H       17.06360000      13.84550000       1.89999000       0.01067710       0.01797750      -0.00295624
H       15.72650000      15.70890000       4.18347000       0.01511040      -0.04427810      -0.02506690
O        1.04785000       6.72290000      13.49680000      -0.17948900       0.22586600       0.17101900
H       22.99540000       6.66588000      12.77640000       0.01300810      -0.00754456       0.01337170
H        1.81654000       5.76616000      12.65610000       0.17395200      -0.21712100      -0.18739600
O        4.44552000      16.49150000      21.20790000       0.00250757      -0.01880080      -0.00343266
H        3.61387000      14.89420000      21.03170000      -0.00799690      -0.00945383      -0.02300870
H        3.62403000      16.83990000      22.77310000       0.00054179       0.03049700       0.00717439
O       10.00100000       0.34879000       2.73621000       0.00606241      -0.01941590      -0.01567180
H       10.51220000      23.36733900       4.31874000       0.00787022       0.00689705       0.02796580
H       10.66000000      22.56710000       1.73603000      -0.00805878       0.01685210      -0.00791715
O        5.21624000      22.61830000      20.51280000       0.00735272      -0.01762950      -0.01257410
H        4.81795000      20.84900000      20.14490000       0.00210365       0.01597270       0.00654330
H        3.86478000      23.19220000      21.54620000      -0.01086650       0.00022155       0.00875720
O        4.57474000      10.71040000       9.90638000      -0.03836880      -0.15525500       0.06526990
H        2.83341000       9.75854000       9.99012000       0.03373670       0.02092560      -0.01471190
H        5.93675000       9.57244000       9.32679000      -0.00118574       0.00911879       0.00678872
