192
TotEnergy=-1103.07595000 cutoff=-1.00000000 nneightol=1.20000000 pbc="T T T" Lattice="24.54527000       0.00000000       0.00000000      -0.00000100      24.54527000       0.00000000      -0.00000100      -0.00000100      24.54527000" Properties=species:S:1:pos:R:3:force:R:3:Z:I:1
O              23.14730000     16.46640000      9.52967000     -0.01091520      0.01003970     -0.05204550       8
H              -0.28401400     17.31220000      8.26467000     -0.01035570     -0.00832865      0.02459310       1
H              21.84860000     15.78970000      8.30642000      0.01892960     -0.00421331      0.02177520       1
O              12.74060000     -0.48915100     18.00550000     -0.02651670     -0.05705550      0.00179163       8
H              13.42180000      1.13062000     17.84830000      0.01533120      0.02354690      0.01537510       1
H              12.40540000     23.37670000     19.76080000      0.01115370      0.03075050     -0.02135310       1
O              17.51190000     18.58060000     18.45640000      0.04388240      0.00632053     -0.01962900       8
H              18.07370000     19.70660000     17.06200000      0.00572401     -0.00692675      0.02297140       1
H              15.79020000     18.86830000     18.37910000     -0.04444590      0.00065216      0.00243907       1
O               2.24335000     19.49550000     12.90420000      0.01733700      0.01125850     -0.01248590       8
H               0.82600500     18.42980000     13.11550000     -0.01420120     -0.00635103      0.00054820       1
H               2.94657000     19.66750000     14.53900000      0.00076408     -0.00263860      0.01429920       1
O              23.43100000      9.87464000      8.90705000     -0.00575339      0.00969788     -0.01657780       8
H              23.83860000      8.17127000      9.42342000      0.00672808      0.00972533      0.01366710       1
H              -0.30278100     11.28280000      9.84440000     -0.00238281     -0.03612020      0.00209868       1
O               5.35337000     20.82030000     19.15410000     -0.00272897      0.00385770     -0.00662324       8
H               5.37400000     22.23620000     17.99160000      0.00396011      0.00281291      0.00560763       1
H               3.69128000     20.82950000     19.87420000     -0.00599726      0.00419431     -0.00140397       1
O               6.81641000     15.25160000      7.86430000      0.03358580      0.06697370      0.01506890       8
H               7.79389000     17.03360000      8.27298000     -0.03707360     -0.07791510     -0.01272240       1
H               6.28770000     14.55000000      9.49079000      0.00950394      0.00449500      0.00001843       1
O              11.74680000     23.09660000     22.82610000      0.00991882      0.00585096     -0.00486900       8
H              12.19720000      0.02336700     23.81470000     -0.00441058     -0.01515170     -0.00252342       1
H              10.38070000     22.11380000     23.50430000     -0.00541649      0.00117941      0.01001310       1
O              -0.31479800      1.86086000     15.46620000      0.04501830      0.02801390      0.02326870       8
H               1.22445000      2.81715000     15.99250000     -0.02950390      0.03346340     -0.02176540       1
H               0.72496900      0.51705600     15.98450000     -0.01465620     -0.05770210     -0.00024727       1
O               0.28553600     23.10610000     21.15050000     -0.02977540     -0.03496990      0.04050370       8
H              23.97300000     21.57150000     22.00080000      0.01881260      0.03099160     -0.03221170       1
H              -0.54374700     -0.28099500     22.30820000      0.01078300      0.00794092     -0.01227420       1
O              19.75190000     20.87240000      9.86881000     -0.00541073     -0.01659170     -0.02062850       8
H              20.05910000     21.37960000      8.10403000      0.00401659      0.00174571      0.02424470       1
H              20.74630000     19.32830000     10.01680000      0.00480140      0.01188630      0.00147943       1
O               7.51730000     11.07510000      4.15689000      0.05790460      0.04209130      0.06963220       8
H               9.10997000     10.23050000      3.70556000     -0.01697460      0.01090090      0.00365065       1
H               8.33287000     12.38980000      5.96756000     -0.04708250     -0.04836380     -0.07766620       1
O              21.80290000     18.84010000     22.82300000      0.05934100     -0.01055580     -0.02350650       8
H              21.08680000     18.81440000     21.05570000      0.02283940     -0.00503530      0.03096860       1
H              23.77080000     18.29820000     22.82300000     -0.08760370      0.01023310     -0.00678211       1
O               4.66754000      4.71291000     16.34170000     -0.01849540     -0.03677550     -0.00753558       8
H               5.62460000      6.08358000     15.59130000      0.00325610      0.01308820      0.02141720       1
H               4.65827000      4.79068000     18.14570000      0.00247799      0.02035770      0.00423677       1
O              -0.57217200      4.43028000      9.99035000     -0.00132066      0.01839520     -0.02385040       8
H               0.85659700      3.28350000     10.06770000     -0.01545250     -0.00645605      0.01476300       1
H              22.48600000      3.99919000     10.96470000      0.01509470     -0.01744740     -0.00043151       1
O               8.57088000      5.48988000      0.10614400      0.00410543     -0.00648121     -0.03603830       8
H               7.87138000      4.46148000      1.38965000     -0.00781096     -0.00431091      0.01862270       1
H               9.34440000      6.94227000      0.77636300      0.00822527      0.01080770      0.01691960       1
O              14.92900000     18.04170000     10.68050000      0.03107920      0.01576100      0.00066113       8
H              13.83250000     18.95910000      9.57894000     -0.00346396      0.00157653     -0.00785754       1
H              16.67780000     18.68460000     10.24010000     -0.03234100     -0.00530894      0.01003420       1
O              11.75110000      3.38581000      8.35440000     -0.12377300     -0.03129710     -0.02150700       8
H              10.65040000      1.85655000      7.42288000      0.05773390      0.05799230      0.03629690       1
H               9.95568000      4.30840000      9.05042000      0.06673120     -0.02613910     -0.01824630       1
O              19.58180000     19.57960000      3.50942000     -0.00619403      0.01456560     -0.01449160       8
H              19.69570000     18.03210000      4.45270000     -0.00101915     -0.00777386     -0.01761060       1
H              19.41620000     19.34420000      1.65783000      0.00847728     -0.00927317      0.03422470       1
O              11.04600000     14.37160000     19.57110000      0.05392270     -0.02535990      0.04293680       8
H              12.56520000     13.17170000     19.16440000     -0.06587340      0.03362480     -0.01696810       1
H               9.83606000     15.27270000     18.54370000      0.01336530     -0.00968816     -0.02145290       1
O               7.67568000     17.28510000     16.10240000      0.02794090      0.03741440      0.00106725       8
H               9.56449000     18.02350000     15.73040000     -0.06040290     -0.00927128      0.01326370       1
H               6.51797000     18.62880000     16.88520000      0.04009980     -0.03113630     -0.01063620       1
O              11.68590000      8.83682000     12.59660000      0.02409780      0.03201560      0.03069380       8
H              10.94390000      7.85458000     11.26810000      0.01148590      0.01449880     -0.01138980       1
H              12.93380000     10.30080000     12.32710000     -0.03831240     -0.04360600     -0.01764910       1
O               5.00541000      2.72118000      2.82801000     -0.01480770      0.02203380     -0.00583354       8
H               5.96226000      1.33816000      3.33687000      0.02583720     -0.03541600      0.01223040       1
H               4.48101000      3.42162000      4.42323000     -0.00367414      0.00910468     -0.00096398       1
O               7.52384000      5.91611000     10.16170000      0.01542530     -0.01847770      0.04587960       8
H               6.19643000      6.19340000      9.01874000     -0.02440240      0.01227180     -0.02184570       1
H               6.76098000      5.27600000     11.74170000      0.01151000      0.00653257     -0.02472480       1
O              19.13830000      8.60002000      3.98619000      0.04975890      0.02463490     -0.04966670       8
H              17.82560000      7.87639000      4.90449000     -0.02964570     -0.00501440      0.00056758       1
H              19.02610000      8.67993000      2.09313000     -0.01936370     -0.00536054      0.04330950       1
O               7.88232000     21.06040000     10.93560000     -0.08793110      0.05486360      0.08449300       8
H               7.15255000     22.55160000     12.40030000      0.05630910     -0.04461080     -0.05683180       1
H               6.18535000     20.26580000     11.35990000      0.03590020     -0.00751103     -0.02508560       1
O              23.61540000      8.31634000     15.82270000     -0.01594140      0.04048570      0.03756860       8
H              -0.30737700      9.41248000     14.57310000      0.01589450      0.00363789     -0.03446660       1
H              23.22980000      9.79506000     16.99740000      0.00293531     -0.05189690     -0.01018170       1
O               7.63661000      8.49359000     16.47650000      0.02106920      0.02799430     -0.06525140       8
H               8.62258000      7.54640000     17.60030000      0.01584770     -0.01841200      0.03540640       1
H               9.06918000      8.72119000     15.20480000     -0.03144590      0.00381881      0.01724230       1
O              15.99560000      4.12302000     18.07950000      0.00505361     -0.00774003      0.04335860       8
H              17.59300000      3.54615000     18.92180000     -0.02239830      0.01343050     -0.02051180       1
H              16.21080000      4.03078000     16.32890000      0.01578560     -0.00137625     -0.02397850       1
O              17.24340000      8.26867000     22.49900000      0.02283020      0.04254760     -0.02492950       8
H              16.66550000      8.73716000     20.73650000     -0.01190660     -0.02718560      0.03833210       1
H              16.63950000      6.81300000     23.35480000     -0.01789350     -0.01830950     -0.01876900       1
O              20.03320000     22.44140000     15.52470000     -0.02166110      0.04151350     -0.02409230       8
H              19.86080000     -0.17514000     15.41550000      0.00828632     -0.05090510      0.00448298       1
H              19.38450000     21.92420000     13.85560000      0.01380120      0.00908498      0.01336430       1
O               4.09128000      7.43928000      6.48318000     -0.00444554      0.02093900     -0.04573630       8
H               4.37308000      8.54767000      4.96098000      0.01830620     -0.02097130      0.03068260       1
H               2.41418000      8.02797000      6.76842000     -0.01644120     -0.00303700      0.01927790       1
O              10.90530000      6.16201000     19.36570000     -0.00174446     -0.04269030      0.09818210       8
H              12.59930000      5.50443000     19.12430000      0.00107117      0.00410663     -0.00813438       1
H              10.59820000      5.48704000     21.32640000      0.00519742      0.03048320     -0.08487390       1
O               0.25509400     16.16050000     18.19010000     -0.01232280     -0.00070318     -0.00796897       8
H               1.03605000     15.53630000     19.73370000     -0.00872525     -0.01423450     -0.02293890       1
H              23.85250000     14.85240000     17.23050000      0.02218400      0.01644160      0.02524840       1
O              20.39680000     14.09100000      5.43570000      0.03978360     -0.02234920     -0.06287480       8
H              19.97860000     12.31300000      5.15262000     -0.01359950      0.00535754      0.02249570       1
H              21.67670000     13.97370000      3.93141000     -0.02494700      0.02081130      0.04216930       1
O              12.36320000      6.79266000      4.26914000      0.00186714      0.03498970      0.02368470       8
H              12.59080000      5.49361000      5.56483000     -0.00872681     -0.00218955      0.00151062       1
H              12.20000000      8.37618000      5.30647000      0.00721801     -0.03219490     -0.02307380       1
O               2.63735000     11.89760000     21.10970000      0.05917720     -0.08399140     -0.01688390       8
H               4.38978000     12.10910000     21.70760000     -0.01464820      0.02740370      0.00407966       1
H               3.26591000     10.01440000     20.50920000     -0.04650800      0.06286830      0.01679930       1
O              17.94930000      8.94207000     10.46100000     -0.03700240     -0.02858800      0.00526054       8
H              19.59210000      9.49810000      9.88612000     -0.01474540      0.01959610     -0.00195638       1
H              16.31810000     10.00550000     10.47270000      0.06920430     -0.01153110     -0.01092510       1
O              14.62930000     10.50170000     17.97260000      0.04510940      0.01224770     -0.05427020       8
H              15.83740000     11.96070000     17.47460000     -0.01881240     -0.03061510      0.00923748       1
H              14.81540000      9.46447000     16.34230000     -0.01290720      0.02165540      0.04702880       1
O              19.39320000      4.26362000     13.39060000     -0.01481470     -0.00332858     -0.01170160       8
H              18.02470000      5.10855000     12.47050000      0.02062340     -0.00017364      0.00373808       1
H              20.77730000      5.43760000     13.43620000     -0.00650465      0.00833453      0.01214990       1
O              15.42760000     12.80620000     10.99620000     -0.04256360      0.06091220      0.06398120       8
H              15.80280000     13.41450000     12.80220000      0.01389420     -0.02504810     -0.03925920       1
H              14.17160000     14.20910000     10.77910000      0.01892840     -0.01925060     -0.01866980       1
O              18.62800000     13.86390000     16.16670000      0.04032680     -0.10144700      0.02094050       8
H              18.09380000     15.34420000     17.03250000      0.00783827      0.01545710      0.02854020       1
H              19.90450000     12.00120000     17.53780000     -0.04474020      0.08416620     -0.03555700       1
O               7.48739000     20.02680000     -0.09144300      0.00421987      0.01924240      0.00714312       8
H               7.64975000     18.42970000      0.70475100     -0.00184753     -0.01455210     -0.00106143       1
H               6.61065000     19.79160000     22.89960000     -0.00070833     -0.00411960     -0.00702430       1
O              -0.13036100     22.51740000      6.93620000     -0.02194140     -0.02789350     -0.07334570       8
H              24.13260000     22.97150000      3.75090000      0.02049460      0.03015460      0.05466540       1
H               0.97193900     23.87910000      7.17915000      0.01459930      0.01846430      0.00486946       1
O              14.79470000      3.36213000      0.05452800     -0.06038360      0.01093890     -0.06602240       8
H              13.00740000      3.58995000      0.49962200      0.02633360      0.00476159      0.00127756       1
H              15.70970000      3.19234000      1.50478000      0.02911700     -0.01098130      0.06107420       1
O              12.65650000     18.98450000     15.72460000      0.04404670      0.06266430     -0.09392790       8
H              13.31730000     19.47450000     13.59870000     -0.02522820     -0.04341120      0.07925970       1
H              13.18010000     20.76980000     16.16450000     -0.02356610     -0.02237010      0.01226320       1
O               2.79375000     17.37140000      4.84185000     -0.00495789      0.02199580      0.01103160       8
H               2.31247000     19.18930000      5.26446000      0.01555830     -0.04189090      0.00479208       1
H               3.92151000     16.46330000      6.05718000     -0.01206190      0.02662860     -0.01263900       1
O               3.51548000      0.59861800     10.40460000      0.01971320      0.01641200     -0.01062850       8
H               3.04863000     23.56980000     11.18220000      0.00100975     -0.00243747     -0.00801100       1
H               5.08441000      0.44148900      9.41515000     -0.02372620     -0.00996143      0.01709120       1
O              -0.06056900     14.20840000      1.69593000      0.01476580     -0.00864719     -0.01688960       8
H               0.85806900     15.41490000      2.65797000     -0.00061175      0.02431250      0.02673510       1
H               1.44005000     13.60810000      0.84184800     -0.01318790     -0.01565890     -0.00990870       1
O               7.35063000     13.94990000     23.60740000     -0.00542282      0.00027818      0.00621143       8
H               7.44925000     12.68730000      0.38097600      0.00665793      0.00971500     -0.00004157       1
H               9.01364000     14.20720000     22.89310000     -0.00253859     -0.00869569     -0.00230038       1
O              17.08190000      2.71615000      4.48690000      0.03323440      0.07984580      0.02524330       8
H              16.95060000      4.65039000      5.10979000     -0.00166729     -0.08346930     -0.02007630       1
H              18.97390000      2.59697000      4.48698000     -0.02618040     -0.00094075     -0.00037148       1
O              22.36880000      4.27523000      4.42472000      0.00855046     -0.01644230     -0.00235704       8
H              22.90360000      4.26451000      6.23811000     -0.00629173      0.01586680     -0.02369600       1
H              22.09510000      5.87859000      3.58172000      0.00033520      0.00026383      0.02998830       1
O               7.72274000     23.29050000      5.75558000      0.01988670     -0.08778930     -0.02511810       8
H               8.36424000     22.44360000      7.26675000     -0.00578121      0.02081850      0.01460410       1
H               7.95475000     21.52040000      4.81209000     -0.01367010      0.06882800      0.01136220       1
O              15.00820000     16.18980000     -0.25163900     -0.04920760     -0.00086090     -0.10908800       8
H              16.20830000     17.31650000     23.47670000      0.00173128     -0.00526468      0.01336630       1
H              13.75740000     15.89390000     22.11980000      0.03832620      0.00558079      0.09302630       1
O               0.68999300     12.91920000     12.59060000      0.07077470      0.04803920     -0.00793848       8
H              -0.11705000     14.20780000     11.56590000     -0.01620140      0.00138027      0.00198777       1
H               2.54215000     13.77550000     12.47800000     -0.05819170     -0.05044160      0.01364210       1
O              21.80480000     10.41070000     20.28200000     -0.00704988      0.01393130     -0.00078374       8
H              20.23360000      9.56891000     21.02190000      0.04281380      0.02803280      0.00894341       1
H              23.02740000     11.58780000     21.21580000     -0.04415240     -0.03586520     -0.00887704       1
O              13.32100000     11.96390000      2.29643000      0.04700340      0.01338010     -0.02700810       8
H              14.55350000     13.53610000      1.68774000     -0.04482580     -0.06609540      0.01052460       1
H              13.85660000     10.29770000      1.50386000     -0.00311665      0.05124770      0.01537640       1
O              21.13640000      3.81904000     19.97640000      0.00282690      0.01108870      0.02340970       8
H              22.59510000      3.31975000     19.02160000     -0.00089869      0.00008653     -0.00855066       1
H              21.65650000      5.21549000     21.06780000     -0.00518007     -0.01292310     -0.01750820       1
O              11.44670000     17.77600000      6.28220000      0.02919780     -0.03820350     -0.06883190       8
H              13.01940000     18.34380000      5.36175000     -0.03032730      0.00515022      0.02517360       1
H              11.16230000     16.24370000      5.11703000     -0.00167821      0.03589640      0.03810290       1
O               0.47169600      0.39320500      2.23363000      0.00273469      0.01752800     -0.01782030       8
H              -0.38725200      2.21189000      2.11402000      0.02487450     -0.05789280      0.02417830       1
H               2.39701000      0.49132500      2.00778000     -0.04866200      0.00710595      0.00908227       1
O               7.32969000      0.59057900     15.61280000     -0.01925720      0.01682440      0.03253370       8
H               6.24310000      2.15101000     16.23650000      0.02805390     -0.03305430     -0.02537060       1
H               8.59413000      0.26461100     16.93270000     -0.00409116      0.00507894     -0.01775240       1
O               4.14528000      6.66033000     22.06810000      0.02654590     -0.03679280      0.03232690       8
H               5.82686000      6.18799000     22.82930000     -0.00624605      0.02164580     -0.02343630       1
H               3.33809000      5.59868000     23.33740000     -0.01797880      0.01119280     -0.01400440       1
O               5.95935000     13.41630000     12.81300000     -0.00687243      0.03801070      0.01903100       8
H               5.90793000     14.92790000     13.95150000      0.00516355     -0.00591796     -0.01837630       1
H               6.96369000     12.44670000     13.93930000      0.00598450     -0.02330480      0.00064335       1
O              15.12610000     22.20210000      6.12048000      0.04375730      0.02910140     -0.05800600       8
H              16.65090000     21.16020000      5.85155000     -0.01860030      0.00517464      0.00561095       1
H              15.66830000     23.58220000      4.78448000     -0.02776800     -0.03801840      0.05096250       1
