192
Lattice="24.57215 0.0 0.0 0.0 24.57215 0.0 0.0 0.0 24.57215" Properties=species:S:1:pos:R:3:force:R:3 TotEnergy=-1103.50016 cutoff=-1.0 nneightol=1.2 pbc="T T T"
O       22.99970000      21.22279000      18.62940000       0.11298900      -0.02149630       0.05462800
H       21.80160000      21.24829000      17.48130000      -0.09818980       0.01296700      -0.07709120
H       24.07730000      19.88082000      17.86190000      -0.00692789       0.00417328       0.01720840
O       21.95185000      21.65465000      23.40549000       0.05120440       0.06882080      -0.00502159
H       22.92565000      23.46275000      23.83822700      -0.04449760      -0.07693560      -0.01161050
H       22.48395000      21.24545000      21.61114000      -0.01266060       0.00784319       0.02128360
O       11.57040000       5.13145000      14.79290000       0.02719850       0.00984000       0.04355740
H       12.69770000       4.59482000      16.22440000      -0.02191860       0.02110830      -0.01999980
H       11.39680000       3.59855000      13.95150000      -0.00758613      -0.03159580      -0.02566200
O       20.28622000      15.29673000      23.62731300       0.03221330       0.02528710       0.03465120
H       21.10679000      14.29885000      22.31830000       0.00481053       0.01183270       0.00569531
H       21.64446000      16.33643000       0.11278900      -0.04215640      -0.03896020      -0.03498790
O        5.83100000       8.46255000      19.84190000       0.01953120       0.02617460      -0.04743850
H        6.85813000       9.64045000      21.01160000      -0.01047420      -0.03058780      -0.03396640
H        6.41787000       8.83575000      17.96670000      -0.01016720      -0.01048730       0.05880470
O       19.55318000       9.03771000       6.24941000       0.05349430       0.04984630      -0.12392900
H       18.87691000       8.48662000       7.64779000      -0.05454500      -0.05134430       0.09816530
H       18.62325000       8.45399000       4.68424000       0.00730592      -0.00633588       0.02899770
O       20.79635000       3.10405000      12.35750000      -0.05286160       0.02180230       0.00482246
H       22.42545000       2.42195000      12.28780000       0.02542410      -0.02041880      -0.00433588
H       19.43085000       1.88695000      11.97610000       0.03253440      -0.00118403      -0.00051205
O       21.64766000      15.95820000       7.36305000      -0.02454460       0.01842170      -0.07352810
H       21.44377000      16.82320000       5.54558000       0.01736450      -0.02188290       0.06604380
H       20.01691000      15.01930000       7.32234000       0.01242240       0.00791529       0.00527922
O        7.81095000      15.06310000      18.55450000       0.02018240       0.00633692       0.01004840
H        6.41335000      14.91460000      17.43390000      -0.01202600      -0.01365470      -0.00722667
H        7.83615000      13.88480000      19.95820000      -0.00639758      -0.00288338      -0.00986939
O        9.51748000      22.51800000      23.59730000       0.00314668      -0.01481590       0.00617526
H       11.19900000      22.32840000      22.74860000      -0.02219130      -0.00664008       0.01537870
H        9.37460000      21.24060000       0.38435000       0.01682440       0.01656830      -0.01467550
O       15.11119000       1.87347000       8.26223000       0.01329790       0.00718390      -0.04861750
H       14.87219000       1.88096000       6.27696000      -0.00449537       0.00651549       0.04803040
H       13.87135000       0.82542300       8.97916000      -0.02620430      -0.00797777       0.00543118
O       13.55205000       3.31845000       3.72560000      -0.05597970       0.00399634       0.06230230
H       11.53765000       3.15145000       3.76880000       0.04904140       0.01528770      -0.00875281
H       14.24655000       2.97945000       2.17210000       0.01068040      -0.02168620      -0.05452120
O       15.81810000      17.12140000      11.55175000      -0.02898170      -0.03266100       0.03103430
H       16.68480000      15.44560000      11.53765000      -0.01780250       0.03125430      -0.00090695
H       14.32820000      16.82280000      12.77745000       0.04818760       0.00553093      -0.02815470
O        4.62085000      15.39930000      13.82825000       0.02622890      -0.06474510      -0.07483980
H        3.00145000      15.97540000      14.20595000      -0.03001550       0.00538209       0.01860250
H        4.29875000      13.96360000      12.36025000       0.01400940       0.04660610       0.05946060
O       24.30712300       0.65648600       2.26778000      -0.01950790      -0.00826506       0.01439030
H       24.10017700      24.26772800       3.85861000       0.01414300       0.01466380      -0.01553320
H        1.39391000       0.76463200       1.58614000       0.01974510      -0.00497406       0.01191870
O       18.74900000      23.47050000      10.00495000      -0.05260810      -0.01337550       0.01187760
H       16.96950000      24.00740000       9.51465000       0.04246220       0.01243330      -0.01526960
H       18.10810000      22.15430000      11.11375000       0.02283680      -0.00604587       0.00070679
O       15.90280000      11.18210000      24.11710000       0.08716810       0.06826900       0.07556680
H       15.53880000      11.07120000      22.45110000      -0.02292080      -0.01435160      -0.07868360
H       17.54830000      12.48200000      24.11230000      -0.06080480      -0.05106480       0.00455778
O        3.73865000      17.40730000       4.04085000      -0.00732790      -0.08859820      -0.02604270
H        4.12975000      17.19020000       5.79895000       0.00039631       0.00397622       0.00709709
H        3.51135000      15.39670000       3.51145000       0.01030620       0.08115080       0.01172310
O       18.78700000      20.74780000      15.68295000       0.03934180       0.09440350      -0.09791610
H       17.47910000      22.06650000      15.30615000       0.01480500      -0.01955620       0.01614360
H       18.14230000      19.72980000      16.80415000      -0.05659170      -0.08033160       0.08429940
O        8.71450000       4.22905000       3.79739000      -0.04982880      -0.06052050      -0.00977295
H        7.87750000       3.35275000       5.32130000       0.01866840       0.02223190      -0.01945660
H        7.86120000       3.16295000       2.37774000       0.01878960       0.03558740       0.03258730
O        5.26575000      17.85350000       9.12355000       0.03000510       0.01206680      -0.03193300
H        6.98925000      18.37070000       9.42525000       0.01518720      -0.00344429      -0.02185100
H        4.93795000      17.67340000      10.83015000      -0.03209510      -0.01536700       0.05033780
O        7.44845000       8.60392000      14.59570000       0.07801890      -0.03716490      -0.01764440
H        8.52295000       9.79081000      13.50500000      -0.02932260       0.00412008       0.01299110
H        8.91035000       7.16192000      14.60390000      -0.04814000       0.03742110       0.01393060
O        5.21767000       0.84975800       0.06543000      -0.01223230      -0.00005727       0.03185710
H        4.24475000       1.76566000      23.32596000       0.03699670      -0.00599688      -0.00438343
H        6.86488000       0.00382900      24.46164300      -0.01888250       0.01023080      -0.02703990
O       20.55055000       2.90607000       0.30665000       0.01539500      -0.00444666       0.02401320
H       19.88895000       3.89524000       1.62065000      -0.04277410       0.03827800       0.00401100
H       21.81715000       2.40109000       1.60585000       0.01692120      -0.02440330      -0.03545900
O       24.48273500      11.58870000       6.02945000      -0.00018517       0.03316880       0.01605450
H       23.14395000      10.32170000       6.00495000      -0.00346279       0.01802880       0.00707496
H       23.86516100      13.35780000       6.58675000      -0.00476666      -0.04734300      -0.01041280
O        9.64837000      11.94495000      11.58570000       0.04583600      -0.03206570      -0.05823560
H        8.76851000      12.23045000       9.71380000       0.01966450      -0.00604237       0.04061390
H       11.29140000      10.92515000      11.01250000      -0.05205170       0.04267170       0.02399590
O        6.87395000      20.03920000      19.43980000      -0.00140273       0.07336380      -0.00091898
H        6.53755000      18.36430000      19.40350000      -0.01003780      -0.07290060      -0.01147380
H        7.33625000      20.30390000      21.15980000       0.01054450       0.01464400       0.00829348
O        7.82045000      10.29925000       2.40850000       0.05656480      -0.06917630       0.04747030
H        7.86985000       8.56835000       3.40360000      -0.00325538       0.05209770      -0.04288510
H        6.15195000      10.77325000       2.31820000      -0.05685950       0.01062660      -0.00562176
O       14.00570000       9.59135000      19.43980000      -0.00320828      -0.02625150       0.01746920
H       14.88390000      10.41145000      18.09520000       0.00699669       0.00141485      -0.01261510
H       14.45860000       7.66995000      19.39280000      -0.01100160       0.03767380      -0.00206508
O        3.29611000      23.93530000      17.82750000       0.00025326       0.03685080      -0.02006190
H        1.86979000      23.24350000      18.57130000      -0.04231050      -0.01761380       0.01197780
H        4.57318000      22.92760000      18.49310000       0.03820340      -0.02767420       0.00995306
O       23.31993000      18.69520000       2.47520000      -0.00616721       0.00505103      -0.01373070
H        0.53157600      18.40390000       2.62931000       0.00981099      -0.00493967       0.00846528
H       23.12601000      19.80210000       0.94791200      -0.00355469      -0.00151850       0.00939351
O        1.48974000       1.75089000      13.17020000      -0.01524500       0.01925180      -0.01481280
H        1.89526000       0.45052800      11.98090000       0.00601540      -0.00894255       0.00110084
H        1.42869000       1.08732000      14.83470000       0.00797047      -0.01113970       0.00624092
O       15.08650000       4.80310000      19.30720000       0.08355240      -0.00497636      -0.00506449
H       16.92740000       4.86520000      18.39790000      -0.05681930       0.00017873       0.01205340
H       15.70590000       4.39450000      21.04850000      -0.02584430      -0.00427549      -0.02033560
O        7.09085000       2.15520000       8.57565000      -0.00120761       0.02001580       0.01312510
H        6.49069000       3.67030000       9.70165000      -0.00429002      -0.04869020      -0.02327540
H        5.96610000       0.65490000       8.41825000      -0.00488610       0.02497780       0.01069730
O       14.02500000      15.12295000       2.60611000      -0.00640730      -0.03452480      -0.05253770
H       14.24690000      13.78065000       1.12784000      -0.00453033       0.03599580       0.04857490
H       12.39400000      15.93635000       2.25276000       0.01559820      -0.00127871       0.00946126
O       17.48920000      11.10395000      15.75090000       0.01819060      -0.07456280      -0.03356650
H       16.76380000      10.98725000      13.85580000       0.02752950       0.00575314       0.06523160
H       18.38440000       9.23525000      16.20690000      -0.03846130       0.07134180      -0.02900610
O        7.44665000      12.38285000       7.33191000       0.00215398       0.00862784       0.00061756
H        7.83295000      11.59295000       5.74886000       0.00446634      -0.00077229      -0.00823824
H        5.87865000      11.70175000       7.99378000      -0.00418628      -0.00035389       0.00287724
O        3.26030000       3.55613000      20.79910000       0.03354450      -0.01757030      -0.06097030
H        3.32860000       1.97292000      19.58040000      -0.00318299       0.03835640       0.02901960
H        4.66990000       4.63608000      20.00020000      -0.03735450      -0.01395380       0.02971230
O        3.72925000      10.94155000      10.32565000       0.01056340      -0.00571330       0.00541508
H        4.36215000       9.19875000      10.88675000      -0.03557050       0.03171800      -0.02706620
H        2.40285000      11.10995000       9.02005000       0.00746137      -0.02362710       0.01453600
O       17.15850000      13.48810000       6.64895000      -0.06031240       0.08620880       0.02574230
H       17.83720000      12.00850000       6.17405000       0.03237290      -0.07694280      -0.03206150
H       15.72240000      14.05130000       5.56765000       0.02286490      -0.00855259       0.00321962
O        3.53125000      22.43756000       8.56185000       0.00289860      -0.04988540      -0.02662270
H        4.32625000      20.53032000       8.16515000      -0.03426100       0.06562680       0.02566750
H        1.79545000      22.39478000       7.80825000       0.02406360       0.00026881       0.01231980
O       16.88585000       6.45007000      10.40815000       0.00729654       0.06559970       0.01402570
H       16.03855000       5.10763000       9.78365000      -0.05980220      -0.05389500      -0.04135290
H       18.18775000       5.46789000      11.02895000       0.05163060      -0.00633006       0.02660800
O       16.09478000      16.93120000      18.73021000       0.00159407      -0.01445200      -0.00766529
H       17.09191000      15.93310000      19.90381000      -0.00705824       0.00413399      -0.01011200
H       15.35746000      15.81220000      17.42410000       0.00850680       0.01265520       0.02004930
O        4.69830000       5.78845000      11.77495000      -0.05584840      -0.02525920      -0.00116621
H        5.58260000       7.06355000      12.84725000      -0.00735119      -0.01674120       0.01662450
H        2.95870000       4.95095000      12.45325000       0.07214600       0.03089000      -0.01669950
O       10.69810000      24.04308500      11.60700000      -0.03347200       0.01912530      -0.02855590
H        9.57915000      23.12750000      12.77160000       0.01713360       0.00136684      -0.00958119
H        9.51848000       0.40661600      10.41080000       0.01790880      -0.01079410       0.02210660
O       14.20750000      21.35844000      21.83205000       0.04465970      -0.02480320       0.01195870
H       15.11390000      20.17971000      20.64265000      -0.02535450       0.02057100       0.01765280
H       15.15520000      20.98064000      23.47515000      -0.01451590       0.00329492      -0.02427080
O       12.05260000      15.46985000      15.07855000      -0.04555520      -0.04747950      -0.01916990
H       10.71650000      14.85593000      16.32864000       0.02341120       0.02250640      -0.01383630
H       11.46670000      14.32875000      13.57785000       0.01365230       0.02381970       0.03135250
O       21.90980000      17.92670000      12.33200000      -0.04382870       0.04543350       0.10282700
H       20.16970000      18.62330000      13.10750000       0.06264600      -0.02392020      -0.03001440
H       21.71160000      17.36960000      10.72900000      -0.01374350      -0.01966190      -0.06970570
O       10.11640000      20.49420000      14.82022000      -0.00334623      -0.00106251       0.00684858
H        8.75654000      20.81340000      16.09112000       0.02990220      -0.03282990      -0.01110590
H       10.92740000      18.76080000      14.66204000      -0.03188560       0.02632280       0.02236580
O       22.82380000      22.32185000       6.69475000      -0.01567100       0.03773670       0.05765390
H       21.24370000      22.41495000       7.97335000       0.04134930      -0.01126550      -0.05863040
H       22.97200000      21.42365000       5.15545000      -0.02842500      -0.02987470      -0.00315603
O       16.94057000       6.82661000       2.69252000      -0.00010602      -0.03375780       0.04005820
H       16.17068000       7.87250000       1.55962000      -0.01245220       0.04789250      -0.05187650
H       15.37381000       6.15692000       3.46710000       0.01727570      -0.01076370       0.00520476
O       14.87590000      23.97340000      15.78590000      -0.04645420       0.00592809       0.02909680
H       13.18490000      23.13440000      15.67030000       0.02642140       0.00323066      -0.01100300
H       14.56890000       0.32335000      17.38640000       0.01741820      -0.00822068      -0.01954390
O        0.45174700      16.65240000      16.46275000      -0.00791553      -0.03318920       0.05206130
H       24.09016500      15.12430000      17.50755000       0.02100960       0.06423310      -0.05119810
H       24.49019200      17.12280000      14.78225000      -0.03056140      -0.01390790       0.00164401
O       17.30125000      20.04085000       1.52854000       0.00408871      -0.09550810       0.00571085
H       19.07755000      20.05405000       0.96655000      -0.02214760       0.00639234       0.00223257
H       16.98375000      17.94695000       1.82300000       0.00660826       0.09212970      -0.01211670
O       21.87240000      13.33780000      19.19490000      -0.20179000       0.19565800      -0.00768748
H       22.86370000      12.21990000      18.91690000       0.19458200      -0.21704600      -0.03010100
H       20.73060000      13.13710000      17.68270000       0.00633344       0.01025940       0.03052940
O       10.19635000      19.14045000       3.54993000       0.00308065      -0.00483874       0.04473510
H        8.44685000      18.67945000       3.85956000       0.00640040       0.00008962      -0.00326164
H       10.88495000      19.21435000       5.39474000      -0.01713650       0.00107002      -0.04610690
O       10.79370000      19.26440000       8.69755000       0.01247080      -0.01247630       0.01274820
H       12.02090000      18.17910000       9.56795000      -0.00954760       0.00996423      -0.01237360
H       10.88570000      20.85290000       9.59875000       0.00149746       0.00544256       0.00214594
O        2.54429000      12.20825000       1.75015000      -0.05124240      -0.00170230      -0.01509200
H        0.90071900      12.34615000       2.63257000       0.02798400      -0.00044703       0.02631030
H        1.58826000      11.62355000       0.26824200       0.03452390       0.00007464      -0.01470640
O       14.95348000      11.44615000      11.11100000      -0.00014188      -0.03916010      -0.00434956
H       15.23278000       9.58495000      11.02060000       0.00001450       0.01717340       0.00203354
H       15.27924000      11.93015000       9.37386000       0.00815706       0.01082410       0.00066911
O       19.60604000       5.57001000      16.58680000      -0.10131400       0.01077210      -0.08597770
H       20.70528000       5.63244000      17.81210000       0.09404550      -0.00056753       0.09530310
H       20.22618000       4.70048000      15.08670000       0.00226756      -0.00459631      -0.00052417
O        1.21715000      10.15555000      20.95644000       0.00479680       0.05259480       0.00131907
H        0.18245000       8.74255000      20.96849000      -0.01469400      -0.03693010      -0.00244571
H        2.73545000       9.92605000      19.95099000       0.00144159      -0.01663590       0.00922811
O       22.52890000       5.40214000      20.86315000       0.01887670      -0.00496620      -0.01094880
H       21.64200000       4.52776000      22.23835000       0.01427410       0.00137961      -0.00279576
H       24.21420000       4.60951000      20.56775000      -0.02260740       0.00801574       0.01323540
O       15.51410000       1.81555000      23.58565000       0.00452186       0.06672550       0.02557340
H       17.30320000       1.90175000      23.74885000       0.01564340      -0.00940130       0.00547730
H       15.06670000       0.30445000      22.90285000      -0.01314290      -0.05852210      -0.02739290
O        9.29905000      11.05870000      21.91960000       0.00820321       0.01788570      -0.04786170
H       10.91555000      10.79640000      21.01010000      -0.01030460      -0.00547674       0.01776470
H        9.32605000      11.01120000      23.67660000       0.01283100      -0.00560587       0.03715540
