192
TotEnergy=-1103.38806000 cutoff=-1.00000000 nneightol=1.20000000 pbc="T T T" Lattice="24.55108000       0.00000000       0.00000000      -0.00000100      24.55108000       0.00000000      -0.00000100      -0.00000100      24.55108000" Properties=species:S:1:pos:R:3:force:R:3:Z:I:1
O              24.46100000     -1.36432000    -35.88030000      0.00782728      0.00496672     -0.00801365       8
H              22.77930000     -2.11699000    -35.88510000      0.01025910     -0.01162990      0.00327892       1
H              25.49270000     -2.19855000    -37.14800000     -0.00962744     -0.00484830      0.00729642       1
O              51.52580000     48.72800000     -1.42924000     -0.07844610      0.01558280     -0.04258670       8
H              49.74760000     49.74230000     -1.19640000      0.06315350     -0.03018690      0.00593387       1
H              51.23940000     48.14110000     -3.26569000      0.01803010      0.01201200      0.04630860       1
O              13.14870000      0.21365800     17.28630000     -0.01003890     -0.02956980      0.00926127       8
H              13.73960000      1.27580000     18.73490000     -0.01036040     -0.01429140     -0.01053230       1
H              12.88470000     -1.59629000     17.82790000      0.01392190      0.04445660     -0.00437363       1
O              -2.33517000    -13.22590000     -1.88242000      0.00018243      0.08321030      0.02088220       8
H              -1.18801000    -13.49810000     -3.16819000      0.02688440     -0.04855340     -0.04272470       1
H              -1.83666000    -11.32160000     -1.94978000     -0.03861010     -0.03356380      0.02543750       1
O               4.78523000     34.71310000     15.51180000     -0.05370280      0.05180050      0.09865400       8
H               5.57189000     34.57360000     17.21400000     -0.00810517      0.00180842     -0.02415390       1
H               5.84892000     33.93500000     14.46800000      0.06277320     -0.05202790     -0.06936450       1
O              -6.79779000     11.37870000      6.79699000      0.02637590     -0.09824960     -0.00616455       8
H              -7.34495000     12.92620000      6.49167000     -0.02920550      0.10648300     -0.00780743       1
H              -7.50011000     10.55610000      5.28851000      0.00139767     -0.00836745      0.01854760       1
O              42.66940000     29.48390000     14.09380000      0.06079680     -0.00511576     -0.00235488       8
H              44.64490000     29.27300000     13.69650000     -0.06326770     -0.01172300      0.00284762       1
H              41.72880000     27.88360000     14.02960000      0.01572890      0.00499968     -0.01126500       1
O               3.52309000    -34.03070000      7.59945000     -0.00495785      0.01198890      0.02760170       8
H               4.94033000    -34.99180000      8.18675000      0.01128770     -0.01809830     -0.01091680       1
H               3.34747000    -33.00130000      9.14394000     -0.01062340      0.00777466     -0.01964140       1
O              32.38640000    -33.91400000     18.19250000     -0.01658830     -0.00701885     -0.01145410       8
H              30.70440000    -34.65960000     17.81180000      0.03103720      0.00412556      0.01255330       1
H              33.57780000    -35.15080000     18.83350000     -0.01916740      0.00041751     -0.00140337       1
O              10.98060000    -27.98720000    -25.45020000      0.03088760     -0.05723220      0.03813100       8
H              12.77820000    -28.40350000    -25.87870000     -0.02011650      0.03014210     -0.00825220       1
H              10.95690000    -29.31130000    -24.02320000     -0.02454040      0.02915050     -0.02857170       1
O             -15.53940000      3.80246000      9.90547000      0.08115570     -0.07448800     -0.00018185       8
H             -15.51640000      1.84097000      9.09300000      0.00644578      0.05777620      0.02938470       1
H             -13.64200000      4.13409000     10.67830000     -0.07709410     -0.01550420     -0.03821120       1
O             -10.89870000     28.10610000     51.75990000      0.04433990     -0.06692230     -0.02972440       8
H             -12.39260000     27.78480000     50.78840000     -0.01739350      0.00436140     -0.00282378       1
H              -9.82451000     26.52500000     51.00160000     -0.02454020      0.06098430      0.03320040       1
O              11.34350000    -30.89800000    -16.52200000      0.01906740     -0.04699200      0.01353440       8
H              11.28920000    -31.20850000    -18.36090000     -0.00605589     -0.00939013      0.01993180       1
H              11.76320000    -32.56910000    -15.58180000     -0.02268220      0.05060570     -0.03653180       1
O              26.56710000     14.79630000     39.53680000      0.12247900      0.04672020     -0.04287860       8
H              25.16540000     14.14780000     40.08810000     -0.11839600     -0.04498180      0.03906760       1
H              27.52500000     13.33710000     39.00300000      0.00243726     -0.00047099      0.00265258       1
O               3.74291000      2.34671000      4.11568000     -0.06094050     -0.00611316      0.02868650       8
H               3.77413000      1.01629000      5.52140000      0.02004470      0.01403770     -0.02018020       1
H               1.85879000      2.62570000      4.45609000      0.04186640      0.00672808     -0.02433230       1
O             -33.65840000     24.30520000     31.44990000     -0.17099000      0.04724250      0.04025330       8
H             -32.14380000     23.93420000     30.93110000      0.11852100     -0.01227510     -0.06063830       1
H             -34.79770000     25.48780000     30.41760000      0.05025920     -0.03233370      0.02145400       1
O             -31.91720000     11.27910000     23.15840000      0.02304590      0.00099715      0.05100240       8
H             -33.08270000     11.14440000     21.86430000     -0.01615150     -0.01113420     -0.03763620       1
H             -30.12270000     10.90610000     22.78440000     -0.01405800      0.01075560     -0.01275230       1
O             -20.21390000     64.73130000    -22.20950000     -0.00657598     -0.02255940      0.02695700       8
H             -20.83260000     64.71950000    -20.44280000      0.00686797      0.01301920     -0.00928231       1
H             -20.05450000     62.89240000    -22.33460000      0.00184229      0.00684439     -0.01523920       1
O              69.31920000     20.48060000     38.56020000      0.01339660      0.02002590     -0.05040570       8
H              68.20610000     21.86530000     38.66600000     -0.02289910      0.01417250     -0.00130179       1
H              69.15120000     19.52480000     40.00540000     -0.00168368     -0.03556700      0.04599960       1
O              60.19690000    -12.26240000      0.77164900      0.02726520     -0.02835110      0.01056930       8
H              59.32510000    -12.90430000     -0.66812500     -0.00729322     -0.00092974     -0.00477866       1
H              61.34750000    -13.69510000      1.35732000     -0.02070200      0.02737290     -0.00473861       1
O              27.38600000     18.91500000    -12.93680000      0.02248980      0.00348279      0.00442847       8
H              28.96970000     19.74400000    -12.47150000     -0.00359125      0.00907047     -0.01590430       1
H              27.36860000     17.76980000    -11.53300000     -0.01965680     -0.01373320      0.00733119       1
O             -13.08910000      5.98556000     64.02540000      0.11946900      0.12351800     -0.04492800       8
H             -12.05490000      7.08444000     65.28050000     -0.03588070     -0.03801770     -0.02109040       1
H             -14.09890000      4.84925000     64.61540000     -0.07886930     -0.09477520      0.07471200       1
O               9.32308000      1.57787000     -0.31582000     -0.06057330      0.00606031      0.03963530       8
H               7.61549000      1.79205000      0.60871600      0.04586560     -0.00051247     -0.02512980       1
H               9.49953000     -0.22936100     -0.19742900      0.01111210     -0.00855377     -0.00827143       1
O              44.88200000     -0.29952800     30.02620000      0.06540880     -0.04074230     -0.01779380       8
H              45.66570000      1.36891000     29.61580000     -0.00504644     -0.02269670      0.01333280       1
H              46.41020000     -1.81714000     29.98770000     -0.05050760      0.05670110      0.00589095       1
O              -0.97932000     60.19900000     32.54080000     -0.02378050     -0.01426100     -0.01315540       8
H              -2.15187000     59.72110000     31.19730000      0.00337542      0.00292154      0.01579830       1
H              -0.22711700     61.67590000     31.88350000      0.01836850      0.01535420     -0.00134832       1
O               9.05545000     40.48120000     12.89050000      0.00102633     -0.00792434      0.04888500       8
H               8.32093000     39.58290000     11.51850000     -0.00364160     -0.01054040     -0.00510820       1
H               8.75433000     39.51420000     14.54480000      0.00556180      0.02475970     -0.04414340       1
O             -14.78700000     20.07770000     18.21840000     -0.02177690     -0.01804230     -0.02723700       8
H             -15.96350000     18.64800000     18.19450000      0.00566697      0.00242547     -0.01849650       1
H             -14.59500000     20.02930000     19.96770000      0.01439570      0.01665800      0.04447780       1
O              29.17400000     34.15510000     50.85390000     -0.10122900     -0.01414100     -0.04721990       8
H              29.93710000     33.30700000     52.15100000      0.02948060     -0.02594990      0.04432190       1
H              27.32960000     33.15800000     50.75010000      0.06828110      0.04541930      0.00211358       1
O               9.62567000     29.63770000     20.53930000     -0.14419900      0.01008510     -0.02187120       8
H              11.25260000     29.53700000     20.80350000      0.11345700     -0.02034890      0.02703390       1
H               8.67865000     28.27570000     21.41510000      0.03092410      0.01869740     -0.00999849       1
O               3.05818000    -24.45270000     17.28270000      0.03891740      0.00913821      0.00068782       8
H               2.14792000    -25.47410000     15.92590000      0.03464380      0.02332740      0.01486190       1
H               5.06081000    -23.96970000     17.19230000     -0.08004120     -0.02933130     -0.01713200       1
O               1.06595000     19.61620000      0.57844800      0.01688720      0.04552450      0.01426290       8
H               2.48946000     18.44170000      0.86856400     -0.01009560      0.02017480     -0.00638157       1
H               1.61044000     21.63180000      0.38552900     -0.00429829     -0.07023840     -0.00832410       1
O              -0.81973600      3.46006000     13.42290000     -0.00988669      0.03430970     -0.00452788       8
H               0.11854400      4.41557000     12.17430000     -0.00177811      0.01861790      0.00172053       1
H              -0.57054100      1.80855000     12.79500000     -0.00059378     -0.03578880      0.00286415       1
O             -34.44840000     52.59170000    -28.06080000      0.04985070      0.04697360      0.00315696       8
H             -33.33070000     54.04610000    -28.80260000     -0.02718250     -0.03801120      0.00406365       1
H             -33.53170000     52.46750000    -26.45460000     -0.01641870     -0.01009950     -0.01092020       1
O               5.85267000     55.41610000    -17.67110000      0.04348750     -0.04541520      0.00736925       8
H               7.31009000     54.16960000    -17.00660000     -0.04276480      0.05074010     -0.01249360       1
H               5.18128000     54.30530000    -18.98070000     -0.00595129      0.00004663      0.00187963       1
O             -39.51230000     41.36780000      2.61822000     -0.01088170      0.01634580      0.00733273       8
H             -38.69060000     39.83040000      2.04605000     -0.01338280     -0.00446827     -0.00150675       1
H             -41.39460000     41.17500000      2.59722000      0.02869250     -0.00556756     -0.00355684       1
O              14.18120000     33.85620000     18.33430000      0.11028100     -0.05377490      0.04112060       8
H              16.35170000     33.68300000     18.11300000     -0.08491260     -0.01563100      0.02887350       1
H              14.26130000     34.85650000     16.96880000     -0.02793430      0.06712640     -0.06870640       1
O             -16.43130000    -12.49820000      8.65337000     -0.01334960      0.01729100      0.13535100       8
H             -16.14450000    -13.10860000      7.14926000      0.02017280     -0.04324800     -0.11171600       1
H             -16.18290000    -14.00040000      9.83792000     -0.01153170      0.02446470     -0.01896780       1
O             -49.61420000      3.67546000     18.42860000      0.04386160     -0.04198270      0.04130020       8
H             -48.16340000      2.32680000     18.11020000     -0.01307980      0.02331090      0.02360560       1
H             -49.80190000      3.70937000     16.68230000     -0.02548160      0.01263760     -0.05747810       1
O             -23.42780000    -17.80950000     34.20650000     -0.05912470      0.01976110      0.01182700       8
H             -21.91150000    -18.05750000     33.36710000      0.04220890      0.00117905     -0.02139000       1
H             -24.18650000    -16.13300000     33.67100000      0.02074560     -0.02573940      0.00946592       1
O              17.24780000     16.18710000     25.27590000     -0.07654460     -0.06046110     -0.00292667       8
H              16.23520000     16.50470000     26.80520000      0.01952900     -0.00171056     -0.00662718       1
H              16.31430000     14.46870000     24.55580000      0.04843360      0.06062470      0.02187330       1
O             -20.76850000     -1.05442000     32.03020000      0.22888100      0.24425000      0.06789620       8
H             -19.28330000     -1.82309000     31.91170000      0.07550810     -0.04974730     -0.00596663       1
H             -22.01820000     -1.79332000     31.83100000     -0.30859000     -0.20527200     -0.05087810       1
O              42.48420000     10.37770000     36.75100000     -0.00263421     -0.02416500      0.05138160       8
H              42.38250000      8.58369000     37.25620000      0.00080228      0.01830460     -0.01051710       1
H              42.53380000     10.46100000     34.99490000     -0.00080905      0.00089774     -0.04274380       1
O              -4.58979000    -32.36400000     -6.98781000     -0.04239680      0.08754960      0.01544860       8
H              -4.57219000    -31.95510000     -5.21280000      0.01120540     -0.01193210      0.00119970       1
H              -3.94117000    -33.88790000     -7.40125000      0.02908540     -0.06823350     -0.01235240       1
O              56.94090000    -16.69470000    -12.42140000      0.02147940     -0.03079490      0.00638831       8
H              58.50400000    -17.53920000    -11.53250000     -0.03461610      0.03251790     -0.01457360       1
H              56.20400000    -18.16220000    -13.32440000      0.00867245      0.02633040      0.01188830       1
O               8.72238000      0.90612300     14.94180000      0.05300020     -0.02360970      0.05506770       8
H               8.79415000      1.61976000     13.31750000      0.00603612      0.01132420     -0.01855790       1
H              10.74410000      0.57215900     15.87120000     -0.05484630      0.02048250     -0.02465190       1
O             -33.00880000     -3.72148000     47.30550000     -0.01606850     -0.03216770      0.03242290       8
H             -33.03650000     -4.23627000     45.54950000     -0.00395221     -0.00831644      0.00117659       1
H             -33.41740000     -5.25897000     48.44860000      0.02986020      0.03277600     -0.04091700       1
O              14.26300000    -11.25010000     -9.91503000      0.00250674      0.01446280     -0.02757970       8
H              13.75360000    -10.09360000    -11.33710000      0.01093740     -0.03101540      0.03191430       1
H              15.67170000    -12.32450000    -10.52920000     -0.01537990      0.01932510     -0.00806969       1
O              21.16810000     17.53190000      9.46735000      0.02765830     -0.03522700      0.02350470       8
H              20.46650000     18.35260000     10.92850000     -0.00547179      0.01791560      0.00457170       1
H              22.27370000     16.30480000     10.41260000     -0.01953710      0.01775470     -0.02659710       1
O              14.69230000     19.34240000     -6.84009000     -0.03581470      0.01052470     -0.00664657       8
H              12.80460000     19.29250000     -7.38498000      0.04809890     -0.01209840      0.01667960       1
H              15.73870000     18.02820000     -7.51406000     -0.00664447     -0.00582507     -0.00589825       1
O              24.12870000     45.07050000     30.59350000     -0.00494569     -0.05125710     -0.00238898       8
H              23.39680000     43.61410000     31.78160000      0.02132060      0.04682750     -0.04106160       1
H              24.89510000     44.36460000     28.94780000     -0.02495100      0.01138140      0.03761200       1
O              -9.89677000      9.11595000      2.87742000      0.03784880      0.04552280     -0.03232590       8
H              -8.51323000      9.58143000      1.53593000     -0.04231090     -0.02581730      0.02866720       1
H             -10.15340000      7.36653000      3.17982000      0.00702118     -0.02086360     -0.00936478       1
O              16.29370000    -24.77470000     12.36700000      0.03344510      0.00907664     -0.00702688       8
H              16.49050000    -25.00430000     10.57020000      0.00327444      0.00882241     -0.00731571       1
H              14.71730000    -25.50520000     12.58530000     -0.03414290     -0.01287860      0.01601340       1
O              -2.90581000     12.56080000     39.80400000      0.04228580     -0.02569480      0.05891100       8
H              -2.27902000     11.10600000     40.99150000     -0.02525390      0.03421780     -0.04401160       1
H              -4.10466000     12.04750000     38.58040000     -0.01110370     -0.02069160     -0.01017800       1
O              45.98340000     41.53190000     -1.60407000      0.04416620      0.01929430      0.02197150       8
H              47.47150000     42.40680000     -0.68437700     -0.03283620     -0.01482190     -0.02685890       1
H              44.59010000     41.62270000     -0.41074300      0.00270641     -0.00550749     -0.00514352       1
O              24.65750000      8.80992000    -30.35780000     -0.02101850     -0.01091600      0.00512827       8
H              26.25480000      9.46279000    -30.94600000     -0.00375834     -0.02435930     -0.00678712       1
H              24.34490000      6.88658000    -30.42170000      0.02755340      0.04002510     -0.00337822       1
O             -15.56760000     47.82950000      8.27833000      0.03275750      0.03274560     -0.07804940       8
H             -14.41840000     46.95420000      7.07414000     -0.01795090      0.01594040      0.02773340       1
H             -16.08110000     46.68400000      9.49821000     -0.00599676     -0.03567870      0.04279560       1
O               7.61986000    -27.82870000     36.86080000     -0.00801529     -0.09443670      0.00299252       8
H               8.21301000    -29.48420000     37.65120000     -0.01312610      0.02088290     -0.03216410       1
H               8.31019000    -26.78810000     38.06480000      0.01291500      0.05791040      0.03985340       1
O              -2.06524000     29.11490000      5.18517000     -0.01303770     -0.05013080      0.02345040       8
H              -1.10483000     29.66620000      6.59126000      0.00773993      0.01042470      0.01324780       1
H              -2.06512000     30.32200000      3.92276000      0.00860381      0.03409430     -0.02601080       1
O              -8.10321000     -7.57021000      6.39501000      0.05444730     -0.02846120     -0.06246980       8
H              -9.48364000     -7.24442000      7.32016000     -0.06001280      0.02429560      0.04749630       1
H              -6.59482000     -7.33989000      7.33081000      0.01076000      0.00445883      0.01128540       1
O              -5.93948000      6.26107000     18.73140000      0.02537530     -0.04089550     -0.02454440       8
H              -4.59292000      5.40739000     19.71750000     -0.01902390      0.01791940     -0.01502510       1
H              -5.83852000      5.32419000     16.85910000     -0.01494290      0.03285560      0.04620660       1
O              23.82340000    -16.88780000      1.42642000      0.01220750     -0.05641150     -0.01038500       8
H              23.73420000    -18.57790000      0.50689900      0.00139920      0.03539310      0.01712710       1
H              22.43860000    -15.95680000      0.79527100     -0.00557109      0.01780000     -0.01402170       1
O              22.59990000      2.49538000     48.27460000      0.15681400      0.07104410     -0.11474400       8
H              21.17350000      1.74486000     48.52870000     -0.12962400     -0.06544260      0.01930190       1
H              23.03340000      2.47197000     46.14920000     -0.02779800      0.00899807      0.08035800       1
O              17.91340000     24.95150000     49.89640000     -0.00067544      0.13714700      0.06829060       8
H              18.93560000     24.29790000     51.16320000      0.02113080     -0.01000770      0.04723940       1
H              17.74950000     23.72720000     48.86440000     -0.02905870     -0.12775200     -0.11176100       1
O             -17.46590000     10.11070000     20.86590000     -0.02511800      0.13049500     -0.06146910       8
H             -16.39930000      8.87499000     20.74930000      0.08048340     -0.11436100     -0.00281578       1
H             -18.69000000      9.87441000     22.00040000     -0.05497580     -0.02013190      0.06414970       1
