192
Lattice="24.62179 0.0 0.0 0.0 24.62179 0.0 0.0 0.0 24.62179" Properties=species:S:1:pos:R:3:force:R:3 TotEnergy=-1103.42105 cutoff=-1.0 nneightol=1.2 pbc="T T T"
O        0.32421000      24.39784000      12.47238000      -0.03069910      -0.03380790       0.03421330
H       23.56900000      23.05413000      13.22518000       0.03246520       0.03645290      -0.03564910
H        1.64891000      23.40582000      11.69758000      -0.00817707      -0.00787993       0.00501315
O        1.96312000       0.76332000       0.93832600      -0.08187730      -0.03561250       0.04491540
H        3.40282000       1.46822000       0.30439000       0.05415040      -0.00515314      -0.03317460
H        1.60152000      23.50201000       1.04246000       0.03609600       0.03730290      -0.01786980
O       12.98550000       0.67702800      16.48380000       0.05824470      -0.10710700      -0.01474010
H       13.55600000       1.66667000      17.83570000       0.00470811       0.02307130       0.02677050
H       14.31290000      23.41057000      16.81260000      -0.06234320       0.07603980      -0.02009680
O       21.03415000      14.91813000      21.78838000       0.02734670      -0.05000890       0.03735860
H       21.90959000      13.59429000      22.97290000      -0.01488630       0.04781500      -0.04233540
H       22.11641000      16.41801000      21.78995000      -0.00722522      -0.00394725       0.01172100
O        6.13111000      11.64261000      19.90520000       0.00704055       0.00478264      -0.03922130
H        5.67250000      10.68991000      21.27190000      -0.01348920      -0.01972780       0.06121460
H        6.16349000      10.23191000      18.76760000       0.00202343       0.00359996      -0.01603580
O       16.81796000      11.75330000       7.01115000      -0.01375540       0.03375660       0.05378490
H       15.85538000      13.42800000       7.22299000       0.02430560      -0.02857500      -0.02098260
H       16.88466000      11.11290000       5.35211000      -0.01070760      -0.00797689      -0.03037140
O       18.87801000       5.46781000      13.10640000      -0.03241940      -0.01553570      -0.01038350
H       20.52501000       5.12681000      12.51720000       0.02239610      -0.00219423      -0.00043878
H       17.95291000       3.93521000      12.48210000       0.01361810       0.01702680       0.01303030
O        2.22056000      12.14208000       6.35625000      -0.01868320      -0.02965470      -0.02567060
H        1.96006000      10.41418000       5.69795000       0.00845435       0.02192530       0.01099760
H        2.60232000      12.10498000       8.11473000       0.00432079       0.00546876       0.01551890
O        8.54961000      14.96588000      17.03770000       0.05218270      -0.07569250      -0.00552056
H        7.64701000      13.93058000      18.35550000       0.00751148       0.01988620      -0.01983970
H        9.91861000      13.52988000      16.39310000      -0.05210540       0.06337880       0.01965050
O       10.95100000      18.49718000       0.26589000       0.04584820      -0.01783430       0.02203420
H       12.65600000      17.85558000       0.99839000      -0.03372800       0.01716520      -0.02617810
H        9.82562000      17.70518000       1.46499000      -0.00889437       0.00030453      -0.00172459
O       12.41039000       5.20598000       8.30492000      -0.17259500      -0.09765440      -0.06137640
H       13.63789000       5.83394000       9.08216000       0.15337100       0.09094200       0.09389010
H       11.40149000       4.37950000       9.79385000       0.01154450       0.01352380      -0.02168810
O       14.24319000       4.64651000       0.98802000       0.10385300      -0.01069770      -0.00833765
H       13.07849000       3.90511000       1.99632000      -0.05958860      -0.02257230       0.03495850
H       15.78331000       3.44331000       1.48742000      -0.04173960       0.03785580      -0.03511210
O       10.32670000      18.15328000       7.97029000       0.00506034       0.00760834       0.01372590
H        9.66829000      16.91528000       6.65699000      -0.00179311       0.01094880       0.03131420
H        9.61544000      18.27208000       9.72949000       0.00286973      -0.01373910      -0.03978630
O        3.09401000      13.88820000      11.08381000      -0.01141830       0.04064840      -0.05172150
H        1.72531000      13.92380000      12.15681000      -0.04896000       0.00707970       0.02731420
H        4.06611000      12.70030000      11.82491000       0.05697730      -0.04627110       0.02923410
O        2.00804000       1.29642000       6.34504000      -0.02292420       0.04408740       0.08948340
H        3.54655000       1.53729000       7.29547000       0.00371591      -0.00581194       0.00513637
H        2.46557000       0.72658900       4.83472000       0.02345290      -0.03237100      -0.09373230
O       14.29468000       0.72821000       7.29241000       0.06458430       0.03692080      -0.04570340
H       16.06368000       0.61811000       6.12921000      -0.06537450       0.00357895       0.05201650
H       13.78408000       2.63361000       7.30271000       0.00882245      -0.04053770      -0.00154544
O       16.74478000      12.06300000      22.63970000      -0.09051000      -0.05076510      -0.02998870
H       16.02178000      11.29320000      20.94670000       0.03212760       0.02117550       0.05257700
H       18.28218000      12.75220000      22.28850000       0.05412740       0.02904920      -0.02377370
O        3.57529000      15.31212000       2.78249000       0.01741160      -0.00701755      -0.02164830
H        2.80919000      14.37172000       4.14299000      -0.00394246      -0.00271813       0.01289580
H        3.60429000      13.99972000       1.46399000      -0.00630313       0.01493290       0.00849163
O       20.82742000      21.29030000      13.01371000       0.00092301       0.11329300      -0.10168400
H       19.37812000      22.52910000      12.76721000       0.02291050      -0.03940700       0.02055510
H       20.94262000      20.06040000      14.14761000      -0.02040230      -0.06238100       0.08582260
O       10.46032000      10.76799000       1.73937000       0.12267400       0.11231400       0.09995970
H        9.61802000       9.94839000       0.68251000      -0.11845100      -0.11096700      -0.12994500
H       11.80862000      11.42679000       0.66300500      -0.00560944      -0.00165251       0.01846730
O        3.79961000      20.02400000      10.95069000      -0.05825130       0.11282900      -0.05454700
H        5.16621000      20.01900000      11.92109000       0.08065510      -0.01068180       0.05053970
H        3.24561000      18.45580000      10.88049000      -0.03294040      -0.10021400      -0.00562549
O       10.18679000       6.75547000      16.69742000      -0.05932830      -0.00170679      -0.00183932
H       11.00489000       6.06728000      18.15512000       0.01061560      -0.00886830       0.00884926
H        8.27839000       6.45017000      17.10672000       0.04524990       0.00604624      -0.00468730
O       10.59710000      23.87642400       0.04443500       0.00618983      -0.04035880      -0.00528673
H       10.18820000      23.56904000       1.81945000       0.00527778      -0.00420255      -0.01032890
H       10.94450000      22.11819000      23.94738200      -0.01026020       0.04447950       0.02931630
O       19.51351000       0.57476300       5.42671000       0.01351830       0.01998180       0.01323920
H       20.48971000       1.98417000       6.43551000      -0.02026810      -0.04967130      -0.03594270
H       20.44941000      23.55569000       5.12641000      -0.00260410       0.03366920       0.02497470
O       21.40238000      13.01502000       8.51011000      -0.07052010      -0.00323123       0.01591280
H       19.62848000      12.15272000       8.17711000       0.03501490       0.02082100       0.00059988
H       22.61513000      11.89782000       7.96791000       0.03698610      -0.02643510      -0.02330520
O        3.48689000       7.82041000      13.93090000       0.03778100      -0.00371848      -0.05563080
H        5.06661000       8.16011000      12.64780000      -0.06834340      -0.01403210       0.04222710
H        2.09742000       6.55611000      13.33140000       0.03536730       0.03389990      -0.00384514
O       10.57909000      19.21760000      19.51760000       0.01644360      -0.00859696       0.08022760
H       10.26269000      17.39130000      19.32430000      -0.00541210       0.01765350      -0.00046890
H       10.90089000      19.46120000      21.55060000      -0.01570680      -0.02197210      -0.07774360
O        1.05741000      11.60951000      24.57901000      -0.00187940      -0.02586420      -0.01093090
H        0.07141000      10.40881000       0.93192000      -0.00107096       0.01003690       0.00734534
H        1.52091000      10.43771000      23.21691000      -0.00379717       0.01454850       0.00086818
O        6.85511000       1.82681000      22.58440000      -0.02634420       0.01817050      -0.02357550
H        7.05867000       1.47311000      20.78320000      -0.00144971      -0.00054045       0.01697590
H        7.90445000       0.67571000      23.47970000       0.02144700      -0.01189000       0.00357564
O        3.57166000       1.01639000      16.75190000      -0.06027020      -0.06987800      -0.05129700
H        1.71312000       0.57559000      15.45810000       0.08213210       0.01310390       0.04784550
H        4.44833000      23.87438000      16.85720000      -0.02014690       0.05759740      -0.00157760
O        1.70040000      20.05360000       1.69889000      -0.05840220       0.06305740       0.02163920
H        2.53128000      18.50840000       1.74398000       0.01508910      -0.04273810       0.01363560
H        0.48595400      20.31790000       3.15838000       0.03547490      -0.01623180      -0.02195180
O       24.30494700       4.92535000      12.23010000       0.00593241       0.00308988      -0.00709097
H       23.96222700       5.06605000      10.36960000       0.01091480      -0.01203000       0.02697150
H        0.54918200       3.35246000      12.77340000      -0.02331530       0.00792767      -0.02524680
O       13.74488000       4.41002000      19.78628000       0.00594819       0.00917505      -0.02105170
H       14.92198000       5.66372000      19.14008000      -0.00157283       0.00136688      -0.00558032
H       14.04508000       4.49932000      21.52648000      -0.00235141      -0.00573413       0.03476710
O        8.92866000       9.10322000       6.32079000      -0.00270523      -0.07647090       0.19158800
H        9.71452000       7.37062000       7.08849000      -0.01841350       0.06742460      -0.04320910
H        9.03471000       9.26642000       4.70799000       0.02757150       0.00421675      -0.14035400
O        8.82488000      15.28761000       4.20190000      -0.03009870      -0.03908250      -0.02387200
H        9.38398000      13.49821000       3.55757000      -0.02105750       0.05216960       0.01783480
H        6.86908000      15.41861000       3.99691000       0.04496830      -0.01015950      -0.00039957
O       16.26010000       8.72561000      17.98190000       0.00481181      -0.01049150       0.03613890
H       17.99620000       8.38711000      17.52160000      -0.00172779       0.00878735      -0.01405170
H       15.22740000       9.31941000      16.66190000       0.00361109       0.00747895      -0.02331670
O        7.48889000      11.16699000      11.77430000       0.10389500      -0.02522030      -0.01205390
H        8.51319000      10.93909000      10.14310000      -0.04381900       0.00721865       0.02336380
H        9.20619000      11.01249000      12.82210000      -0.06341890       0.01118700      -0.01407400
O        4.91958000       5.80529000      17.99090000       0.00860492       0.00938581      -0.00157955
H        4.35548000       4.03090000      18.01320000       0.00720495       0.00994192      -0.01212940
H        4.69568000       6.55780000      16.22870000      -0.01533160      -0.01626810       0.02061490
O        4.00459000       7.44199000       4.38561000      -0.09477150      -0.10102400      -0.05020540
H        5.37029000       8.01309000       5.17231000       0.08651860       0.02705840       0.05565860
H        3.90709000       5.46599000       4.51081000       0.00688186       0.06999540       0.00226703
O       15.81800000      17.04970000       1.33641000       0.01327840      -0.02524190      -0.02869480
H       16.14330000      16.84460000       3.07151000      -0.00330762       0.00725092       0.03518350
H       16.65090000      15.52990000       0.66501000      -0.01385560       0.01875930      -0.00642717
O        6.58719000       0.49386700       9.26821000      -0.01191050      -0.00909795      -0.01872940
H        7.55029000      24.30587900       7.74571000      -0.02155410       0.00741762       0.03737080
H        5.25819000      24.05557600      10.03911000       0.03028320       0.00290273      -0.02081030
O       15.50151000       9.14217000      11.45371000       0.01077120       0.00163168      -0.04027930
H       17.14191000       8.28000000      11.79021000      -0.02110980       0.00729832      -0.00373766
H       15.51261000       9.84471000       9.66551000       0.01256640      -0.01440700       0.03578860
O       20.43971000      17.80398000      16.47512000       0.02786090      -0.07079900      -0.04147680
H       21.19726000      17.26858000      18.02224000      -0.00252471       0.00852830       0.01299360
H       21.12856000      16.19868000      15.39027000      -0.02682790       0.05008200       0.02373200
O        9.77362000       3.31679000      12.32039000       0.02965130       0.01835630       0.01103220
H        9.81662000       4.22429000      13.94899000      -0.00372245      -0.00808880      -0.01655910
H        8.13542000       2.90789000      11.74859000      -0.01835900      -0.00845159      -0.00002275
O        8.15606000      23.03014000      17.32660000      -0.03812710       0.03525590      -0.02931240
H        9.45104000      23.94963300      16.43030000       0.00799775      -0.00400923       0.00838145
H        8.83138000      21.66859000      18.20220000       0.02677400      -0.03074750       0.01959390
O       16.78378000      21.19681000      22.13601000      -0.01399930      -0.03674790       0.09374820
H       16.34268000      21.08822000      20.49921000      -0.01506540       0.00189387      -0.08493040
H       15.74988000      19.71694000      22.80961000       0.03219960       0.03880930      -0.00537737
O       12.35100000      11.22229000      14.56249000      -0.05201580       0.05527990       0.09240270
H       11.78370000       9.72739000      15.33570000      -0.00944477      -0.03339620       0.00471917
H       13.02600000      10.97309000      13.05219000       0.05150290      -0.02713060      -0.08414160
O       20.15780000      17.98300000       8.57401000       0.02352530       0.06684560       0.06750200
H       20.89770000      18.29610000      10.41070000      -0.03204040      -0.00815286      -0.06492310
H       20.12640000      16.26660000       8.32113000       0.01377830      -0.05185880      -0.00255666
O       15.09660000      19.86960000      16.97411000       0.01556900       0.00960598      -0.00410734
H       13.60120000      18.91310000      17.21081000      -0.01528810      -0.00144896       0.00617462
H       16.41350000      18.70430000      16.52504000       0.00702048       0.00224457      -0.00135667
O       23.26300000      21.92491000       6.36611000      -0.00942828       0.02892450      -0.05338720
H       23.31010000      20.37181000       7.22001000       0.00271823      -0.00343263       0.03052370
H       23.88560000      23.58591000       6.88711000       0.01141010      -0.03291750       0.01746650
O       16.70963000       9.40963000       2.53545000       0.00277380       0.00159792      -0.01177920
H       16.53598000      10.54930000       1.06996000       0.00368064      -0.01384260       0.00211412
H       16.00421000       7.78226000       2.01766000      -0.00476176       0.00872873       0.00270087
O       16.69430000       0.68869000      12.15980000      -0.07486990       0.05245000      -0.03938180
H       15.66240000       0.97109000      10.37510000       0.03924670      -0.02609840       0.04936920
H       15.36230000       1.59849000      13.25890000       0.03158610      -0.03772150      -0.01126900
O       22.56347000      13.72830000      13.32021000      -0.00675209       0.02528390      -0.07490420
H       22.43493000      12.22150000      14.16721000      -0.00251470      -0.04458380       0.04206610
H       22.10898000      13.11200000      11.44091000       0.00608297       0.03113270       0.04396780
O       22.46401000      19.71421000      22.64033000       0.01173310       0.00545890       0.03369050
H       23.42951000      19.78121000      24.23925700       0.01627770      -0.00569398      -0.02695780
H       20.90861000      20.15011000      23.43924000      -0.02464530       0.00163342      -0.01749810
O        0.31971000       7.82268000      20.61948000      -0.06789310      -0.04807930       0.06785810
H        1.69701000       7.19007000      19.73268000       0.03903950      -0.01964370      -0.01814490
H       24.18360000       6.20378000      21.79538000       0.02851340       0.06055630      -0.05014040
O        9.80499000      23.39151000       5.72584000      -0.13550900      -0.07384340      -0.04825050
H       11.10679000      24.23501000       6.17767000       0.13525200       0.08726550       0.04372890
H       10.11299000      21.76171000       6.43238000      -0.00116158      -0.02280450       0.00368014
O        7.99856000      18.84278000      13.18261000       0.01179590      -0.03198310      -0.02061500
H        8.00340000      17.42508000      14.31501000       0.00164541      -0.01689690      -0.00054296
H        7.66654000      20.09798000      14.33921000       0.00108334       0.04848040       0.03233410
O       22.95001000       5.02381000       6.88518000      -0.03453930       0.02618500       0.00779825
H       24.43878700       4.12621000       6.62747000       0.03280160      -0.02334250      -0.01269830
H       22.81574000       6.31741000       5.54202000      -0.00100267      -0.00833783       0.00799654
O       15.56989000      16.66538000       6.63412000      -0.05880070       0.00114866       0.01817920
H       14.03419000      17.31349000       7.60759000       0.01786190      -0.01292330      -0.02773730
H       16.87981000      17.55958000       7.43638000       0.02980990       0.01580420       0.01286690
O       21.91175000       9.18518000      16.59460000       0.05264110      -0.08508690      -0.02631320
H       22.93054000       8.24541000      18.08460000      -0.02683070       0.03901820      -0.03658740
H       22.53184000       7.99180000      15.03060000      -0.02871840       0.04764870       0.06379460
O       22.02270000       8.01809000       2.69763000       0.01914620      -0.00900264       0.00314234
H       22.24380000       6.47159000       1.70063000      -0.00933551       0.00921096      -0.00244929
H       20.25560000       8.42929000       2.70430000      -0.00986715       0.00167449      -0.00439728
O       22.53820000       3.95814000      23.79281000      -0.09080800       0.00255058      -0.03351590
H       21.30480000       2.43780000      23.75861000       0.00157794       0.04932480      -0.00610999
H       23.71240000       2.96875000      24.47461000       0.09597710      -0.04763590       0.04204780
O       18.27680000       1.10431000       0.48142000       0.01768920       0.03153390       0.04901620
H       18.34650000       0.74371000       2.36632000       0.00679029      -0.00012047      -0.03633230
H       17.59060000      24.41360000      24.15281000      -0.01880390      -0.03429770      -0.01467000
O        6.45079000       7.00681000      24.23040000      -0.01015040      -0.03028680       0.00448124
H        6.30509000       5.15247000      23.68810000       0.00890808       0.03983010       0.00917715
H        5.58869000       7.18027000       1.25021000       0.00503691      -0.00402597      -0.02034540
