192
TotEnergy=-1103.65387000 cutoff=-1.00000000 nneightol=1.20000000 pbc="T T T" Lattice="23.92355000       0.00000000       0.00000000      -0.00000100      23.92355000       0.00000000      -0.00000100      -0.00000100      23.92355000" Properties=species:S:1:pos:R:3:force:R:3:Z:I:1
O               8.52066000     23.39020000      5.53279000      0.00856423     -0.01682070     -0.01111790       8
H               8.66805000     23.34970000      3.62405000      0.00647796      0.00911551      0.01342740       1
H               8.03941000     21.65710000      5.76640000     -0.00287650     -0.00972211     -0.00040170       1
O               2.39465000      0.54904500     18.44780000     -0.00097573     -0.00080488      0.00230147       8
H               2.39076000      0.32813200     20.26620000      0.00405114     -0.00363478      0.00609926       1
H               0.77365300      1.28124000     18.12580000     -0.00090725      0.00580116     -0.00293384       1
O              12.25580000     19.20780000     17.22190000     -0.00841676      0.00631858     -0.00250942       8
H              10.71720000     18.92280000     16.26850000     -0.00044183     -0.00157803      0.00288387       1
H              11.71450000     20.54100000     18.35460000      0.00682515     -0.00174778     -0.00309951       1
O              19.47420000     15.77950000     20.96550000      0.00592973     -0.00472945      0.00049321       8
H              18.49930000     16.78790000     19.78070000     -0.00254964      0.00230221      0.00990812       1
H              20.36720000     14.62390000     19.88410000      0.00499733     -0.01381100      0.00693884       1
O              18.46560000      9.82841000     16.75330000     -0.08175980      0.03025530     -0.02946170       8
H              16.54240000      9.85929000     16.66980000      0.03475950     -0.04207210      0.01914020       1
H              18.11310000     11.48910000     16.00620000      0.05042670      0.00363617      0.00354748       1
O               2.97541000     15.15880000      3.57073000     -0.00498404      0.00609667     -0.00070816       8
H               3.13911000     16.09150000      2.00725000      0.00757936     -0.00222592     -0.00289363       1
H               1.24801000     15.54900000      3.96827000     -0.00063968     -0.00444495      0.00176878       1
O               4.00828000     13.76500000     19.10880000      0.00374489      0.00747407      0.00588055       8
H               2.53289000     14.06570000     18.10390000     -0.00659025     -0.00880072     -0.00359255       1
H               5.26912000     13.35490000     17.88150000      0.00631334      0.00098326     -0.00157391       1
O               3.54334000     11.75160000     10.28380000     -0.00053415      0.00799457      0.00059312       8
H               2.88829000     10.10890000     10.68120000      0.00519450     -0.00019759     -0.00048071       1
H               4.83402000     11.60280000      9.01539000     -0.00433414     -0.00773299     -0.00141165       1
O              12.82340000      2.88606000      7.33289000      0.00394657     -0.00698869      0.00063310       8
H              14.44860000      2.33295000      6.64203000     -0.00026681      0.00793639     -0.01071880       1
H              11.76100000      1.88650000      6.25509000     -0.01009390      0.00177109      0.00294854       1
O              14.92130000     12.18030000      9.53347000     -0.00737862      0.00301911     -0.00363319       8
H              14.71970000     13.89380000      8.88155000      0.00394507     -0.00465805      0.00264343       1
H              13.98370000     11.11720000      8.34706000      0.00718345     -0.00044000      0.00336631       1
O              20.97510000      2.63439000     22.09530000      0.00231740     -0.00623289      0.00278093       8
H              19.52260000      3.65783000     22.65200000      0.00183444     -0.00038613     -0.00294143       1
H              21.34810000      3.26127000     20.43040000     -0.00137252     -0.00399589      0.00087967       1
O              20.82660000      6.76892000     10.19020000      0.00588335     -0.01175280      0.00350065       8
H              19.17270000      6.26794000     10.81460000      0.00521100      0.00606256     -0.00916972       1
H              20.68670000      7.86179000      8.74478000     -0.00931397      0.00510059      0.00256280       1
O              17.55190000     22.14860000      0.41883500      0.00538677      0.00274456      0.00314689       8
H              18.49740000     23.44910000     -0.45025200      0.00007175     -0.00497559     -0.00273889       1
H              18.74770000     20.79390000      0.67675800     -0.00042531     -0.00044700     -0.00135018       1
O              21.96350000     17.86590000      1.37235000     -0.00106822     -0.00091211     -0.00428399       8
H              21.30430000     17.11430000     -0.18369400      0.00196878      0.00063605      0.00404536       1
H              21.16300000     16.92840000      2.70941000     -0.00674886      0.00070293     -0.00342864       1
O               8.31422000     23.57280000      0.41150400     -0.00165246      0.00062328     -0.00621359       8
H               8.89868000      0.96596700     23.22870000      0.00058788      0.00280010      0.00495327       1
H               8.22367000     22.08230000     23.28880000      0.00512618     -0.00477253      0.00495524       1
O               5.67355000     19.82190000     10.86050000      0.00845948     -0.00447619      0.00218554       8
H               5.76217000     18.47810000      9.58121000     -0.01120070      0.00659275      0.00008121       1
H               4.28204000     21.06430000     10.59230000      0.00714286     -0.00913586     -0.00199371       1
O               2.00276000      8.46194000      2.00503000      0.00369048      0.00217848      0.00331380       8
H               2.25362000      8.92421000      0.22481700     -0.00313458     -0.00551068      0.00048713       1
H               0.52486900      9.36032000      2.56696000      0.00081022     -0.00001065     -0.00703048       1
O              16.67800000      2.67930000     16.23220000      0.02153540     -0.00758679     -0.01501070       8
H              18.69990000      3.41137000     16.78410000     -0.06528430     -0.00055125     -0.00490428       1
H              15.02420000      3.30940000     16.77920000      0.03232310      0.00800639      0.01796380       1
O              12.40120000     11.53360000      1.32477000     -0.00619787     -0.00072723      0.00185052       8
H              12.46030000     10.58840000      2.89270000      0.00137950     -0.00135177     -0.00510617       1
H              10.65750000     11.96590000      1.08753000      0.00072049      0.00130173      0.00366268       1
O              22.53260000     10.26030000     19.77580000      0.01559570     -0.00412138      0.00484803       8
H              33.93740000     -2.56783000      8.51411000      0.01796640     -0.04824480      0.06224290       1
H              21.27120000     10.18040000     21.08560000      0.00909033     -0.00039086     -0.00604166       1
O              15.59370000     22.10410000     13.35450000     -0.00888935      0.00032641      0.00729301       8
H              15.60820000     23.51820000     14.53200000      0.01228100      0.00581758      0.00395791       1
H              13.84690000     21.82090000     12.99010000      0.00121584     -0.00370704      0.00290898       1
O               5.94026000      4.88354000     18.34600000      0.01238120     -0.00171399     -0.00459214       8
H               4.96204000      6.43967000     18.59800000     -0.01480710     -0.00786668      0.00584536       1
H               4.78216000      3.46492000     18.27560000     -0.00533912      0.00981343      0.00072365       1
O               9.94534000      0.15952400     17.33440000     -0.00852259      0.00546341     -0.00767232       8
H              10.47270000      0.68221500     15.68840000      0.00897118     -0.00240272     -0.00263851       1
H               8.59580000      1.35379000     17.55480000     -0.00356823      0.00124606      0.01071070       1
O               3.48276000      5.45979000      7.25984000      0.00109105      0.00090090      0.00199334       8
H               1.81509000      5.76920000      7.90956000     -0.00113545      0.00090521     -0.00353640       1
H               4.50271000      5.34245000      8.75084000      0.00008594     -0.00455350      0.00540837       1
O              21.24330000      3.91915000     17.13080000      0.02358850      0.00562518     -0.00510816       8
H              22.33070000      5.43971000     17.25130000     -0.01781880      0.00728730     -0.00026635       1
H              21.85340000      3.12288000     15.60810000     -0.00085996     -0.00795421     -0.00891536       1
O              16.51910000      1.60213000      4.09087000     -0.00579197     -0.00032786      0.00370805       8
H              18.04760000      2.20516000      4.95106000      0.01003970     -0.00954475     -0.00526514       1
H              17.00350000      0.03537200      3.19337000     -0.00379913      0.00893980      0.00220137       1
O              19.81150000     16.50290000      6.38695000      0.01394910      0.00160861      0.00333455       8
H              20.75930000     15.12010000      7.10818000     -0.01077810     -0.00981761     -0.00427682       1
H              20.94190000     17.86610000      6.75917000     -0.00279450      0.01145300     -0.00232683       1
O              10.58690000     20.21710000     10.45780000     -0.01740290      0.02119720     -0.03927190       8
H              10.22750000     18.31920000     10.68430000      0.00737685      0.01089410     -0.02394300       1
H               9.33257000     20.80600000     11.69910000     -0.00765135      0.01074000     -0.00890165       1
O               0.81069700      7.65417000     14.82880000      0.00014496     -0.00153576     -0.00590629       8
H               0.80670100      9.43650000     15.24250000     -0.00331506     -0.00325408      0.00756939       1
H              -0.61215200      7.48715000     13.71780000     -0.00244541      0.00193962     -0.00425240       1
O              13.24170000      5.02680000     19.81240000     -0.00598193      0.01196770      0.00500844       8
H              13.49870000      6.82705000     19.46380000      0.00984217     -0.00458487     -0.00365143       1
H              11.73360000      5.23292000     20.82320000     -0.00414682     -0.00709067      0.00080083       1
O               8.77822000      6.47625000     22.63510000     -0.00020744     -0.00211885     -0.00072282       8
H               7.48120000      6.16036000     21.37560000     -0.00060901     -0.00131365      0.00282431       1
H               8.38424000      8.07965000     23.37130000     -0.00157414     -0.00270987     -0.00128749       1
O              13.02320000      8.30766000     13.85830000      0.00152975      0.00610405     -0.00691100       8
H              12.90980000      9.56912000     12.54990000      0.00499748      0.00246284      0.00245253       1
H              14.10620000      7.01994000     13.10020000      0.00583364      0.00058563      0.00153556       1
O              10.19550000     17.72060000      4.56239000      0.01279090      0.00482049     -0.00081841       8
H              11.80680000     17.03450000      5.09859000     -0.00010294      0.00486578      0.00160569       1
H              10.42890000     18.12470000      2.76266000     -0.01088860     -0.00677304      0.00135531       1
O               2.86226000     22.96970000     23.67880000     -0.00225409     -0.00314759     -0.00724819       8
H               4.22669000     23.71870000      0.70655500     -0.00636416     -0.00049792     -0.00139153       1
H               1.38201000     -0.63393700      0.76785900      0.00590908      0.00152358      0.00099773       1
O               6.77180000      9.63633000      5.96738000     -0.00101643     -0.00033164     -0.00600233       8
H               5.79240000      8.10312000      5.74317000     -0.00200080      0.00168414      0.00373475       1
H               6.06690000     10.69250000      4.66652000     -0.00104021      0.00263796      0.00047102       1
O               6.46895000     15.91290000      7.47146000      0.00014836     -0.00071878     -0.00205015       8
H               7.74384000     16.30240000      6.20677000      0.00700786      0.00462757      0.00155744       1
H               5.04299000     15.62880000      6.35285000     -0.00901241     -0.00246469      0.00045268       1
O              19.79490000      9.43482000      0.67739800      0.00604929     -0.00027595      0.00955352       8
H              18.52680000     10.68960000      1.01984000     -0.00325533     -0.00150875     -0.00727687       1
H              19.02120000      7.98635000     -0.13323200     -0.00449180      0.00999438      0.00734503       1
O              22.12360000     19.14400000     10.76800000      0.00172043     -0.00022057     -0.00246071       8
H              22.03380000     17.66370000     11.80480000     -0.00143414     -0.00189767      0.00336305       1
H              20.47540000     19.27280000     10.03150000     -0.00036501      0.00225536      0.00127693       1
O              13.83800000     10.23660000     19.33960000     -0.00270182     -0.00562923      0.00094999       8
H              13.02140000     10.91190000     20.80170000      0.00182918     -0.00295942      0.00249212       1
H              13.02430000     10.97280000     17.90320000     -0.00497059      0.00113538      0.00510398       1
O              19.08660000     14.96430000     14.20280000     -0.00178067      0.00843639     -0.00346347       8
H              17.58390000     14.52140000     13.30500000     -0.00068352     -0.00555617     -0.00727955       1
H              18.55650000     16.44140000     15.13040000      0.00276008      0.00106153      0.00849411       1
O              13.28100000     15.93280000     20.89970000     -0.00251806      0.00445411      0.00543826       8
H              12.88780000     16.71750000     19.26850000      0.00453802     -0.00825262      0.00723569       1
H              12.46170000     14.33550000     21.07210000      0.00295149      0.00108456     -0.01213430       1
O              22.40630000     20.30050000     16.60990000     -0.00390003      0.00589124     -0.00377539       8
H              23.36880000     21.38520000     17.70090000      0.00259820     -0.00187477     -0.00044042       1
H              21.89000000     21.39700000     15.23820000      0.01054500      0.00060474     -0.00316789       1
O               2.90364000      8.51151000     20.63890000      0.00967908     -0.00096553      0.00088097       8
H               0.94520000      8.91185000     20.33180000     -0.02161240      0.00870287     -0.00272880       1
H               3.40273000     10.19400000     20.17020000      0.00594007      0.00382252      0.00182357       1
O               1.07373000     13.37790000     14.57750000      0.00074134      0.00544123      0.00320207       8
H              23.47150000     14.24510000     15.01630000     -0.00680851     -0.00461489     -0.00036037       1
H               1.41557000     13.76130000     12.83950000      0.00369487     -0.00215252     -0.00111398       1
O              15.73230000      4.57799000     11.41040000     -0.00269327     -0.00230454      0.00535960       8
H              15.83120000      3.40994000     12.87120000      0.00552975      0.00869907     -0.00842546       1
H              14.54010000      4.00252000     10.14170000      0.00358586     -0.00395512      0.01015990       1
O               9.63309000     13.30270000     17.45350000      0.00287903     -0.00080853     -0.00307806       8
H               9.55666000     15.08230000     17.06750000     -0.00508836     -0.00478819     -0.00100217       1
H              10.09170000     12.55620000     15.86360000     -0.00501529      0.00059988     -0.00108202       1
O              22.05380000      0.65562000     12.87670000      0.00629955     -0.00352801     -0.00534445       8
H              -0.24752300      0.47285400     12.03610000      0.00255558      0.00192329      0.00762091       1
H              20.94670000      0.02842800     11.58180000     -0.00620945      0.00271579      0.00165126       1
O               4.46345000     17.91030000     22.47960000     -0.01106930     -0.00303663     -0.00625116       8
H               3.73938000     16.94340000     21.10840000      0.00728131     -0.01003600      0.00324394       1
H               3.44072000     19.40920000     22.57670000      0.00160736      0.01049480      0.00801851       1
O               8.34561000      6.79677000     13.69230000      0.00039521     -0.00504355     -0.00151351       8
H              10.16380000      7.12318000     13.73970000      0.00131268      0.00616400      0.00000834       1
H               7.96480000      6.40602000     15.42910000     -0.01151860     -0.00440027      0.00163177       1
O               0.15607300      3.45956000      2.07446000     -0.00273055      0.00164511      0.00151575       8
H               0.83914200      5.16965000      1.94352000     -0.00115098     -0.00112851     -0.00174142       1
H              23.07010000      3.16904000      0.54139300      0.00314206      0.00571798      0.00304419       1
O               7.49049000      2.81797000     10.77220000      0.01684010      0.02447450     -0.00881702       8
H               8.34767000      3.61337000      9.37631000      0.00005795     -0.01946670     -0.01254540       1
H               7.83659000      4.29875000     11.88290000     -0.01277270     -0.00650813      0.02237170       1
O               7.56319000     17.86540000     15.47460000      0.00454150      0.00272198      0.00044054       8
H               7.09209000     18.14520000     13.74310000     -0.01414130      0.00153241     -0.00260803       1
H               6.20661000     18.58240000     16.43650000     -0.00116494      0.00038575      0.00149852       1
O              17.08160000      5.08163000     -0.19235300     -0.00699602     -0.00585000      0.00682213       8
H              16.92260000      4.14938000      1.37867000     -0.00512663      0.00014257      0.00004401       1
H              15.64640000      4.61774000     22.69420000     -0.00065636      0.00401105     -0.00538961       1
O              19.91610000     11.17670000      6.86467000      0.01494070     -0.00365651      0.00833664       8
H              19.22240000     11.26190000      5.18185000     -0.00766766      0.00137697      0.00927098       1
H              18.70430000     11.46470000      8.20513000     -0.00855802      0.00021480     -0.01675200       1
O              21.04610000      2.32774000      5.97226000      0.00037457      0.00638265      0.00189476       8
H              21.05250000      3.62477000      7.23728000      0.00289162      0.00261064      0.00468350       1
H              22.15950000      2.92357000      4.59239000      0.00103674     -0.00301438      0.00039182       1
O               9.43693000     18.05040000     23.44800000     -0.00838505     -0.00424850     -0.01187390       8
H              10.43360000     17.09610000     22.21260000      0.00941816      0.01151190      0.01197090       1
H               7.68366000     17.64200000     23.02400000      0.00067686      0.00630980      0.00626928       1
O              17.06590000     14.34590000      1.61996000     -0.00185355     -0.00226487      0.00189360       8
H              15.25990000     14.14390000      1.57446000      0.00320340     -0.00167304     -0.00303931       1
H              17.55080000     14.68470000     -0.12287200      0.00074708      0.00179560      0.00062069       1
O              12.13690000      9.03282000      6.45675000     -0.00474246     -0.00271374      0.00462421       8
H              10.38810000      9.54414000      6.60850000     -0.00677210     -0.00099391     -0.00486381       1
H              12.07540000      7.26403000      6.90323000      0.00733089     -0.00001493     -0.00486018       1
O              17.47270000     21.95750000      8.78231000      0.00161209     -0.01145880      0.00030920       8
H              17.13770000     21.65660000     10.56190000     -0.00327746      0.01022590     -0.00216646       1
H              16.50060000     23.42460000      8.36993000      0.00460659     -0.00012803     -0.00157168       1
O               3.12707000      0.07537200     10.34500000      0.00512294      0.00875001     -0.01123840       8
H               2.77451000      0.61455600      8.61919000     -0.00977716     -0.01186250     -0.00008394       1
H               4.81983000      0.80009400     10.46620000     -0.00564803      0.00514056      0.01321300       1
O              17.69540000     19.04860000     17.94110000      0.00073878      0.00653570     -0.01539210       8
H              19.21650000     19.91200000     17.42380000      0.01596920     -0.00404952      0.01073450       1
H              16.48560000     19.89890000     16.94050000     -0.02372600      0.00187164     -0.00361424       1
O              14.60140000     16.96050000      7.48167000     -0.00217707     -0.00179441      0.00028566       8
H              16.33120000     16.97460000      6.83380000      0.00093113      0.00083818     -0.00014294       1
H              14.42110000     18.51630000      8.39105000      0.00836046      0.00177547     -0.00270920       1
O               3.50198000      0.38620200      4.92385000     -0.01052130     -0.00500061      0.00377275       8
H               5.14968000     -0.28793500      5.27184000     -0.00139340      0.01525220      0.00124567       1
H               3.53365000      2.20207000      5.09388000      0.00397047     -0.00322497     -0.00348801       1
O               9.95149000     14.61680000     11.64300000      0.02029790     -0.00337056     -0.05276950       8
H               8.18978000     14.27250000     11.40010000     -0.01092830     -0.00006644      0.00327549       1
H              10.62610000     13.96750000      9.95333000     -0.01037930      0.01465850      0.04628850       1
