192
Lattice="23.24268 0.0 0.0 0.0 23.24268 0.0 0.0 0.0 23.24268" Properties=species:S:1:pos:R:3:force:R:3 TotEnergy=-1102.9672 cutoff=-1.0 nneightol=1.2 pbc="T T T"
O        2.87636000      13.20060000       5.42429000       0.05057910       0.01954530       0.01188530
H        4.47529000      14.27240000       5.70345000      -0.05189210      -0.02686400      -0.00461116
H        1.60326000      14.26600000       4.67820000       0.01084050       0.00411077      -0.00897528
O       20.09490000       2.69791000      16.65670000      -0.00043042       0.02014210      -0.04652320
H       18.69440000       1.69525000      16.02940000       0.01382770      -0.00559874       0.01380270
H       20.60980000       3.47117000      14.98100000      -0.00539480      -0.01110030       0.02781570
O       12.10160000      17.26230000      10.51000000       0.02972830      -0.04990600      -0.03845660
H       10.54650000      16.35080000      10.90660000       0.00148981       0.00826732       0.01450390
H       13.15290000      15.83230000       9.56073000      -0.03434500       0.04175450       0.02547700
O       15.33660000      18.02200000       4.16716000       0.03212900       0.01256200       0.01775420
H       14.03390000      17.01050000       4.84520000      -0.00734032      -0.00870390       0.00699353
H       16.78100000      17.98080000       5.41915000      -0.01894390      -0.00391783      -0.02315230
O        7.86050000      14.98290000      23.07580000       0.00022471      -0.09309810      -0.07532000
H        6.37329000      15.68420000      22.17910000      -0.00348832       0.00327437       0.01055020
H        7.94534000      13.06600000      21.92500000      -0.00403682       0.08634130       0.06385030
O        0.28291100       9.71362000      14.78200000       0.01061510      -0.01348440       0.01082430
H       23.17156400      10.31980000      13.10710000       0.00173639      -0.00263859      -0.00500104
H        1.52908000       8.30929000      14.64320000      -0.01682510       0.02597820      -0.00830585
O        3.46358000       5.62606000      13.68610000      -0.01676940      -0.02665560       0.00556004
H        2.54250000       4.60715000      14.98770000       0.02004240       0.00183191      -0.02701840
H        3.79443000       4.49037000      12.23230000      -0.00109542       0.01646220       0.02636230
O        2.28082000      14.22940000      16.87670000      -0.00464871      -0.02682530      -0.02979480
H        3.42616000      14.30890000      15.39710000      -0.01269710       0.00294324       0.02503410
H        1.24767000      12.69680000      16.39320000       0.02188410       0.01467820       0.00632861
O        6.96332000      21.20620000      22.02610000       0.01969260      -0.02452880       0.03050230
H        7.46438000      20.04730000      20.69460000      -0.01154320       0.00969336      -0.00851711
H        7.27946000      20.18550000       0.31212000      -0.01031520       0.01723070      -0.02048120
O        0.69143000      21.36130000       9.05155000       0.01992620      -0.03397110       0.00132081
H        1.97506000      20.52810000       7.95506000      -0.01586080       0.01925430       0.01248610
H        1.02039000      20.59200000      10.72110000      -0.00017497       0.01436080      -0.01821780
O       18.62540000      14.29520000      10.39040000      -0.05334800       0.01960740       0.06135470
H       17.74320000      15.46850000      12.08700000       0.02924580      -0.02808060      -0.04524960
H       17.10300000      13.21320000      10.16970000       0.03223530       0.01454590      -0.00781884
O        9.06090000      19.44290000       5.97123000       0.00323008       0.10902600       0.04127080
H       10.05150000      18.83230000       7.30788000       0.01485360      -0.00028706       0.03581460
H        8.96230000      18.03310000       5.13001000      -0.01556340      -0.11369800      -0.07389490
O        0.11850000      17.11090000       2.85028000      -0.02928950      -0.04763350       0.09513480
H        0.01162000      18.77130000       3.53370000       0.00117627       0.02072220      -0.00519036
H       22.53600000      16.16560000       4.97843000       0.01206590       0.04603030      -0.08910560
O       20.92260000       8.41087000       5.81555000       0.00058231       0.00768135       0.01907250
H       19.40040000       8.44750000       6.84409000       0.01296290       0.00090311      -0.00142696
H       20.57200000       6.95640000       4.79235000      -0.00710622      -0.00103982      -0.00433071
O        6.15860000      19.30480000      17.40860000      -0.00538565      -0.01215620      -0.01086920
H        4.88057000      18.12070000      18.01940000       0.00909759       0.01071920      -0.00581414
H        6.68555000      18.56790000      15.75440000      -0.00078702      -0.01069290       0.02190850
O       10.59010000       8.68046000       7.46015000      -0.00094021      -0.00606441      -0.02763090
H       11.64660000       7.45230000       8.27354000       0.00450987      -0.00499410       0.01019040
H        9.29131000       9.40855000       8.50272000       0.01173130      -0.00037800       0.01486730
O       22.02510000      22.64060000       2.40829000      -0.01829950      -0.01853270       0.00494562
H       20.76660000       0.57689100       2.95605000      -0.00326655      -0.00274106      -0.00099960
H        0.18312000       0.40720800       2.05079000       0.02117850       0.01813990      -0.00415658
O       11.70950000      22.63220000      17.95790000       0.00209451       0.04092850       0.05371470
H       11.58150000      20.78450000      18.45340000       0.00643472       0.05237440       0.00290926
H       11.73090000       1.06009000      19.60480000      -0.01777280      -0.08381930      -0.05834190
O       19.59840000       1.66864000       7.67589000       0.14715800       0.08293890       0.14291300
H       21.14790000       0.77665100       7.47756000       0.00530176      -0.00538165       0.00026422
H       18.53370000       1.06020000       6.69449000      -0.13947900      -0.07684740      -0.13477100
O       10.77090000       9.72373000      22.14670000      -0.02544180       0.01688340      -0.01937360
H       12.49180000       9.46188000      22.51870000       0.01888130      -0.01216100      -0.00524889
H       10.74040000      10.62770000      20.53380000       0.01100620      -0.00928341       0.01919830
O       22.91690000       6.35742000      20.07140000       0.01109320      -0.09117860      -0.04148090
H       21.86160000       5.78295000      18.64820000       0.01615160       0.00263190       0.01094160
H       22.29290000       7.90383000      20.32320000      -0.02132500       0.09227000       0.02060790
O       10.31440000      11.89240000      16.92670000       0.00993989      -0.03096250       0.01472810
H       12.00210000      11.33180000      16.32440000      -0.00770984       0.00940016      -0.00044385
H        9.20991000      10.24750000      17.25840000       0.00999002       0.05519850      -0.02785840
O       20.23190000      14.84390000      17.60680000       0.01737160       0.04529990      -0.01045790
H       19.47530000      16.55750000      17.56570000       0.00762023      -0.03283250       0.00728722
H       22.00720000      15.32610000      17.17650000      -0.01757780      -0.01360080       0.00348447
O       19.03740000       4.29244000      22.42320000      -0.03258480      -0.00183492       0.00583561
H       20.58750000       4.79573000      21.60800000       0.00517672       0.00742064       0.00178827
H       17.69790000       5.49347000      21.94950000       0.01954120      -0.01611550      -0.01066960
O       16.35480000      17.14310000      13.62190000      -0.02026090       0.02579970       0.02934580
H       14.49220000      17.03520000      13.20410000       0.02963800       0.00675232       0.00264635
H       16.44600000      17.81370000      15.46890000      -0.01667800      -0.03098880      -0.04457440
O        8.23635000      14.29620000       5.00961000       0.05560950       0.01997830       0.09096170
H        7.15190000      14.14690000       3.68193000      -0.00967679      -0.03167240      -0.06029590
H        9.69823000      13.22010000       5.53516000      -0.03462960       0.00708896      -0.03105680
O        8.01064000      15.81590000      14.16640000       0.01071500      -0.05262730       0.01107110
H        6.96416000      14.37800000      13.43240000       0.02943920       0.03863200       0.01898470
H        9.94529000      14.04740000      16.35730000      -0.04387050      -0.01904390      -0.03427350
O        9.30314000       3.46150000      21.52300000      -0.01338570      -0.03300590      -0.10981600
H        7.53237000       3.04559000      21.67780000      -0.00956814      -0.00866907      -0.00751499
H        9.75887000       3.92544000      23.04550000       0.03878230       0.03859360       0.10864700
O        1.77955000       3.95365000       2.72908000      -0.03154650       0.03024990      -0.01917810
H        2.70499000       3.13245000       3.98650000       0.01640110       0.00083115       0.02927890
H        1.13472000       5.60977000       3.31410000       0.01801910      -0.02888260      -0.00801366
O       15.30680000      17.86290000      18.33290000      -0.04770210      -0.01799720       0.08515100
H       14.35910000      17.45820000      20.29170000       0.02128120       0.00405387      -0.07778810
H       16.71900000      18.66680000      19.05050000       0.02413490       0.02288270       0.00960472
O        2.04506000       1.36121000      17.03270000      -0.03666020       0.01344200      -0.00928538
H        2.14422000       2.51339000      18.42880000       0.00762277      -0.00203528       0.01213360
H        0.18564900       1.38747000      16.69550000       0.02577430      -0.00393207       0.00384688
O        4.03966000      21.21850000       4.51124000       0.02518150      -0.03234780      -0.00477129
H        5.67557000      20.30850000       4.57062000      -0.02915240       0.00556828       0.00737477
H        4.73344000      22.85560000       4.40294000       0.00274678       0.02741020       0.00229183
O        7.25031000       7.21920000      17.14640000      -0.00451972      -0.01540530       0.00780711
H        5.98814000       5.84556000      17.42680000       0.02110190       0.02789320      -0.00607468
H        8.47734000       6.96377000      18.46480000      -0.00401810      -0.01401580       0.00894641
O       20.15430000      12.85730000       2.79762000      -0.03115580      -0.01838260       0.02497260
H       20.39780000      12.02850000       4.47565000      -0.00022860       0.00470760      -0.03428720
H       18.35940000      12.43660000       2.43496000       0.02163670       0.00896461       0.00742104
O       19.98660000      21.57510000      20.52430000       0.00230562      -0.04703450      -0.00290038
H       21.12110000      21.05420000      21.86770000      -0.00941532       0.00884952      -0.00250742
H       20.00420000       0.08561700      20.45970000       0.00072742       0.03481910       0.00376074
O       13.66300000      12.99250000       7.74978000       0.01926140       0.00247442      -0.03992910
H       13.76650000      11.32230000       8.49682000      -0.00587288       0.00843826      -0.01189780
H       14.40470000      12.90500000       5.94304000      -0.01806990      -0.00505298       0.04177230
O       19.90450000      17.83840000       7.25789000       0.05407250       0.00129826       0.06406020
H       21.36880000      19.05630000       7.89615000      -0.04845850      -0.02968690      -0.02053760
H       19.65550000      16.52550000       8.86792000      -0.00912947       0.02716540      -0.05166130
O       17.11690000       8.74925000      10.95790000      -0.01393070      -0.01794200      -0.00133259
H       15.76160000       7.81876000       9.99504000       0.00822024       0.00526308       0.01112360
H       18.13090000       7.26455000      11.26090000       0.01321880       0.00575011       0.00300000
O        7.27574000      11.16880000      10.34510000      -0.00218001       0.03028210      -0.02982800
H        7.16725000      12.66560000       9.17581000       0.00166528      -0.02562530       0.02735270
H        6.33366000       9.92257000       9.41946000      -0.01882620      -0.00004937       0.00742005
O       11.46260000      22.69380000       2.33416000       0.01458260      -0.00485401       0.00606688
H       10.18320000      21.93550000       3.41016000       0.00261459       0.00387325      -0.01591810
H       11.07380000      22.80800000       0.56730400      -0.01945650       0.00014730       0.00823061
O       11.96380000       0.83088900       8.42743000       0.25756600       0.05690930      -0.23131600
H       12.45230000      22.32150000       8.06697000       0.02527130       0.02048780      -0.01240230
H       10.90560000       0.44818700       9.36721000      -0.28423700      -0.06821090       0.25415000
O       22.80330000      11.59190000      21.72070000      -0.01364010      -0.00477333       0.01900630
H       22.27400000      12.40740000      20.26450000       0.00477872       0.01431090      -0.05144680
H       21.29980000      12.16590000      22.60170000       0.01395690      -0.00994903       0.03041150
O        3.06997000      16.44580000      21.92500000      -0.00046648       0.00703916       0.01655160
H        2.36681000      16.96690000       0.36832000       0.00380466      -0.01520720      -0.02598960
H        2.27460000      14.86420000      21.46580000      -0.00194098       0.00786915       0.00531131
O       16.08060000      11.64450000      15.57830000       0.04350390      -0.05847880      -0.04963420
H       17.05480000       9.82134000      13.96420000      -0.04221730       0.07267660       0.03670960
H       17.47380000      12.91500000      15.68790000      -0.02004430      -0.02518330       0.00110534
O        3.93722000       9.17700000       2.12552000      -0.00305850      -0.00434743      -0.02604160
H        3.68735000      10.11720000       3.63799000      -0.00407211       0.02013260      -0.00166739
H        3.14400000      10.13500000       0.73952900       0.00469429      -0.01081170       0.02315960
O       21.38370000       5.11226000      11.60110000      -0.00393065       0.00110679       0.03266880
H       20.91600000       5.03286000       9.91237000      -0.01933300      -0.01392740      -0.03776130
H       23.12640000       5.44297000      11.42840000       0.01985060       0.01002500       0.00787362
O       15.27970000       6.74380000      18.99830000       0.00895099       0.05559670      -0.02677560
H       14.13170000       5.59594000      18.16530000       0.00990880       0.00859894      -0.00531811
H       15.67780000       8.31747000      17.82350000      -0.01592510      -0.05282630       0.03351960
O       17.54400000       5.60046000       3.70450000      -0.02904620       0.03516170       0.03261970
H       18.02280000       4.73397000       2.28675000       0.02696090      -0.04045390      -0.04658320
H       16.85720000       7.06266000       2.86111000      -0.00371964       0.00200060       0.01390600
O        7.48756000       3.98647000      10.39290000       0.04108070       0.00238876       0.02762510
H        8.73587000       5.36583000      10.68610000      -0.01858600      -0.01209980      -0.01387750
H        8.26049000       2.83635000      11.68450000      -0.02475530       0.00029222      -0.01855040
O       12.50000000      16.73920000      22.72240000       0.05086550       0.02172310      -0.00479170
H       10.96600000      15.79550000      22.39660000      -0.02282370       0.01070880       0.01038990
H       12.34900000      18.45270000       0.20922000      -0.00886573      -0.02602130      -0.00041928
O       16.55750000       0.23374300       4.21347000       0.02888190      -0.02749520       0.09713360
H       16.17150000       0.83007300       2.71131000      -0.03184470       0.03326860      -0.09326590
H       15.62930000      21.97910000       4.54404000      -0.00674590      -0.01199540      -0.01235460
O       11.41510000       6.47685000      13.09860000      -0.05203760       0.03463240      -0.01714760
H       12.60210000       5.40916000      13.86850000       0.02156180      -0.02665260       0.01145250
H        9.77919000       6.26920000      13.93060000       0.01802390       0.00530051       0.00403735
O        3.50371000      16.44430000      11.66520000       0.01936020      -0.03940770      -0.08360410
H        2.46735000      14.96880000      11.33070000      -0.00532879       0.00997081       0.00712151
H        3.16829000      17.20950000      13.14360000      -0.02377020       0.03229950       0.06475020
O       14.25420000       3.04091000      14.88970000      -0.00048290       0.01458470       0.00020065
H       13.02220000       1.79371000      15.54570000       0.04259380      -0.00826868      -0.00602614
H       16.08480000       2.86088000      14.57610000      -0.04082370      -0.01786170       0.00899060
O        6.49713000       2.79576000       5.26675000      -0.09288160      -0.12344400       0.11273700
H        6.75929000       2.94019000       7.15385000      -0.00046948      -0.00340433      -0.03342920
H        7.35707000       3.96315000       4.58508000       0.09365760       0.12199100      -0.07814250
O       19.43480000      22.34670000      12.84850000      -0.02791300      -0.06032210       0.08450640
H       19.38210000      22.20480000      11.15380000       0.00302050       0.01150200      -0.08322450
H       18.59630000      20.63700000      13.25030000       0.01641500       0.04649760      -0.00433971
O       14.74930000       5.10832000       8.28237000      -0.05315750      -0.05559380       0.02881360
H       13.21740000       2.85503000       8.92642000       0.04137950       0.04515220      -0.02108520
H       15.37730000       4.29177000       6.79377000       0.00912098       0.01096510      -0.00637184
O        8.85234000      22.66480000      13.27210000       0.01130770       0.00787686       0.01078820
H        7.27734000      21.85190000      13.49980000      -0.02002430      -0.00609928      -0.00905705
H        9.46379000      22.48800000      15.00030000       0.00931462       0.00670156      -0.00489067
O       14.68030000      12.52140000       2.22406000       0.00473574       0.06932620      -0.05164990
H       14.81340000      14.79790000       0.67679700      -0.02429050      -0.07194640       0.05828520
H       13.19200000      11.71950000       1.50845000       0.00603892       0.01063600       0.00684732
O        0.30923800      12.57610000       9.80678000      -0.10114100       0.04781100       0.13346100
H       22.43500000      13.57590000       8.88773000      -0.01974940       0.00985284      -0.01275520
H        1.44124000      11.96490000       8.86425000       0.12092900      -0.06639200      -0.11203800
O        1.29745000      20.09220000      14.56490000      -0.04044030       0.00519329       0.03561120
H       22.71750000      20.07400000      14.21210000       0.01797050       0.00071687      -0.00608596
H        1.14980000      20.69630000      16.34910000       0.02110840      -0.00644696      -0.02972990
O       11.14500000       5.19306000       3.32927000      -0.01840060       0.01898690       0.04196630
H       10.62130000       6.47924000       4.66307000       0.01420990      -0.01519790      -0.03271110
H       11.45480000       3.77233000       4.44150000       0.00576325      -0.00047383      -0.01333430
O        4.26867000       2.68947000      21.68820000       0.00993431       0.00955259      -0.01631650
H        3.88055000       0.97189100      22.01170000       0.00307348      -0.01459880       0.00125135
H        3.86176000       3.60236000      23.18620000      -0.01398740       0.00806135       0.01057730
O        3.25088000       7.48464000       8.07873000       0.02514360      -0.00851268      -0.01449070
H        4.80430000       6.55050000       7.70017000      -0.01675130       0.00291527       0.00859948
H        2.77866000       7.98954000       6.39288000      -0.00918737       0.00133783       0.00746654
