192
TotEnergy=-1102.13669000 cutoff=-1.00000000 nneightol=1.20000000 pbc="T T T" Lattice="25.79139000       0.00000000       0.00000000      -0.00000100      25.79139000       0.00000000      -0.00000100      -0.00000100      25.79139000" Properties=species:S:1:pos:R:3:force:R:3:Z:I:1
O              14.20650000     21.79910000      4.11692000     -0.00814938     -0.05406290     -0.03195700       8
H              13.89270000     20.02750000      3.48481000      0.01309400      0.04185390     -0.00528545       1
H              14.23270000     21.28260000      5.81881000      0.00760130      0.01456390      0.03507040       1
O              15.81170000     21.38560000     14.06600000      0.05836730      0.21852400     -0.07228990       8
H              17.36170000     22.08160000     15.04040000     -0.04325740     -0.00042458     -0.03658290       1
H              15.85980000     20.06120000     14.87070000     -0.01140130     -0.21519500      0.11438300       1
O               0.59030400     16.52800000     17.52630000      0.20307200      0.22914500      0.17003700       8
H              -0.18087800     15.65360000     16.60500000     -0.18065600     -0.20802200     -0.20295300       1
H               1.76391000     17.51520000     16.33980000     -0.02752290     -0.02209640      0.03311250       1
O              24.27910000     -0.06940300     18.52930000     -0.04223250      0.10658800     -0.12320400       8
H              24.69300000     -1.03696000     19.71910000      0.03057450     -0.14141400      0.13802600       1
H              25.32970000      1.20340000     19.16040000      0.01534330      0.03994470     -0.00629050       1
O              25.26510000     25.00260000      4.94187000      0.07246280     -0.05127070      0.03440300       8
H              25.27410000     23.51390000      6.18699000     -0.00553228      0.04215240     -0.02875260       1
H              27.19830000     24.97780000      4.54956000     -0.06056660      0.00221196      0.00515784       1
O              16.63700000     16.36350000     20.06830000      0.01371450      0.02197150     -0.02486120       8
H              15.34940000     15.76300000     21.18850000     -0.00917693     -0.00260407     -0.02361810       1
H              16.21990000     16.36030000     18.18320000     -0.00303497     -0.01188760      0.04746020       1
O              17.59420000     14.32740000      2.02740000      0.04816630     -0.07342780      0.01369410       8
H              16.72130000     15.80780000      2.39288000     -0.02120810      0.01240940      0.03112980       1
H              18.00350000     13.03570000      3.46058000     -0.02558010      0.06079670     -0.04365290       1
O               6.90057000     14.82870000      7.81534000      0.03107770      0.03410150      0.00595696       8
H               5.89565000     15.09700000      6.31757000      0.00435627      0.01040000     -0.00197893       1
H               8.07436000     16.36230000      8.09338000     -0.03590900     -0.04152740     -0.01302250       1
O              12.51670000     13.64470000     22.57060000     -0.01673460      0.01277420     -0.01384820       8
H              11.22870000     12.24790000     22.65900000      0.04748170      0.02203330      0.00958220       1
H              14.20030000     13.59730000     23.32200000     -0.03113150     -0.03455520      0.00606678       1
O              23.95150000      6.33990000     13.71750000      0.05592680      0.06358600     -0.03395120       8
H              24.76440000      7.08553000     15.21050000     -0.01424440     -0.01214430     -0.00467243       1
H              24.94160000      7.44380000     12.39310000     -0.03395030     -0.04638650      0.03598050       1
O              13.01440000      9.30952000     25.82060000      0.00502346      0.06215570      0.03257480       8
H              13.96910000      8.37853000     24.74330000      0.03876170     -0.03533640     -0.04246190       1
H              11.56850000      8.45949000     26.22180000     -0.03519150     -0.03123020      0.01607450       1
O              15.89730000     23.90310000      9.08005000     -0.01618150      0.09005050     -0.09823580       8
H              16.85340000     23.26370000     10.26600000      0.05512720     -0.06082340      0.09313200       1
H              17.15170000     25.27020000      8.53087000     -0.04235660     -0.02806340      0.00339177       1
O               6.38258000     15.35180000     18.53670000     -0.05182340      0.03674350     -0.08993160       8
H               5.50771000     15.61010000     19.99480000     -0.04873910      0.01209760      0.05068680       1
H               7.92002000     15.01390000     19.06400000      0.10098200     -0.03722620      0.03244290       1
O              11.17060000     23.67790000     18.98520000      0.07055200      0.06310530     -0.01966530       8
H              13.13750000     23.83630000     18.51470000     -0.07253090     -0.01373110      0.01985840       1
H              10.86100000     25.57930000     19.10970000      0.00055393     -0.04823400     -0.00062029       1
O              17.68860000      3.52487000      0.85907400      0.04821220     -0.10601300      0.09161870       8
H              16.35040000      2.76674000      1.92706000      0.01082160      0.01527870     -0.02132030       1
H              17.19200000      4.74890000     -0.10770900     -0.04639130      0.09646520     -0.07300670       1
O              21.70600000     22.14860000     10.52260000      0.10901600     -0.28278700     -0.07652620       8
H              22.19350000     21.98850000     12.20930000      0.03331650     -0.04249670      0.04472630       1
H              21.17410000     23.48740000     10.87540000     -0.13737800      0.32561900      0.03938640       1
O               2.66523000     15.95160000      3.85196000     -0.02458340     -0.02446670      0.06499050       8
H               1.58850000     15.80180000      5.47603000      0.02807060      0.00954170     -0.05249600       1
H               2.80369000     14.15440000      3.39120000     -0.00570714      0.01678140     -0.01113750       1
O              20.95440000     13.55090000     15.03730000     -0.05524860     -0.01117880     -0.03646010       8
H              19.02020000     13.36770000     15.21870000      0.05794810      0.00554274     -0.00366098       1
H              20.96260000     12.62420000     11.30170000      0.00217396     -0.03348050      0.07776660       1
O              11.02650000      5.27305000     19.35110000      0.12772700      0.02536150      0.07838800       8
H              12.88090000      5.36796000     18.65000000     -0.04838060      0.00067108      0.03927130       1
H              10.34810000      4.94106000     17.89600000     -0.08056300     -0.02363260     -0.11678900       1
O              20.78550000     12.51680000      9.44017000      0.06311970      0.06541750      0.01149420       8
H              21.52780000     14.29080000      9.63626000     -0.00394955     -0.00712394     -0.04129370       1
H              19.04760000     12.87310000      9.49783000     -0.05690240     -0.01276430     -0.01008840       1
O              13.69190000      1.40291000      2.62413000      0.00136167      0.11820000     -0.01483080       8
H              13.40460000     -0.21701500      2.84355000     -0.02149210     -0.11136200      0.02270670       1
H              12.29110000      2.45188000      3.17749000      0.00894280     -0.01518240     -0.00180863       1
O               5.97029000      9.40332000      6.17156000      0.07857060      0.09817330      0.01464040       8
H               7.01949000      9.44949000      4.64364000     -0.01907070     -0.01604540      0.00151581       1
H               7.12465000     11.19270000      7.01182000     -0.05939270     -0.07574570     -0.02426030       1
O               3.61775000      7.96627000     20.45670000     -0.01402990     -0.01225130      0.03218870       8
H               3.61983000      7.32763000     22.29850000     -0.02062400      0.01906090     -0.05718290       1
H               1.84331000      8.20889000     19.87620000      0.03071200     -0.00564822      0.01782950       1
O              10.33490000     21.13060000     10.82610000      0.04093720     -0.03304850      0.06675700       8
H              10.43720000     20.63450000     12.86970000     -0.00149466      0.02067810     -0.08935420       1
H              12.05530000     20.65770000     10.10070000     -0.04262300      0.01151110      0.02425370       1
O               2.81780000     20.71590000      1.66744000      0.03584650     -0.02160300     -0.01776700       8
H               4.38560000     20.80130000      0.42817600     -0.05839200     -0.01938120      0.05261830       1
H               2.56143000     18.97560000      2.57628000      0.02192280      0.04440530     -0.03999920       1
O               6.67061000      9.11993000      0.61065600      0.07981780     -0.08461250     -0.09716410       8
H               6.23583000      7.47703000     -0.55391000     -0.00430213      0.05599860      0.05424230       1
H               8.66682000      8.62921000     -0.38683200     -0.08923440      0.04482750      0.05124370       1
O               0.68952500     12.41660000      8.15277000     -0.06761230      0.00538280      0.07759290       8
H              -0.64754500     11.71770000      9.64134000      0.06896290      0.02520790     -0.06576910       1
H               0.98303900     14.12400000      8.91424000      0.00015107     -0.03266410     -0.00970492       1
O              22.93740000      1.58334000      1.36840000      0.03212140     -0.02486970     -0.16670500       8
H              21.29380000      1.93371000      1.33814000     -0.09440590      0.02167250     -0.01395310       1
H              23.35180000      1.74991000      2.89454000      0.05551750      0.01235170      0.17376800       1
O              23.45520000      9.72031000     18.16260000      0.13066500     -0.03868150     -0.09989830       8
H              22.38520000     10.03250000     16.83050000     -0.02644530      0.02321170     -0.04807180       1
H              22.48610000      9.87096000     19.42450000     -0.10434200      0.01542060      0.13791500       1
O               9.27290000     20.82550000     23.01770000      0.01335280     -0.07838840     -0.05350940       8
H               9.69520000     22.52790000     23.19730000      0.01504570      0.02512280     -0.00669560       1
H              10.12090000     20.03550000     21.36220000     -0.02729300      0.04352930      0.06720370       1
O              20.60540000     17.89630000      7.52747000     -0.01022280     -0.02257660      0.09027880       8
H              20.36540000     18.62920000      5.95664000      0.00652286      0.02378060     -0.03311530       1
H              20.66070000     19.16930000      8.95019000      0.00103787     -0.01346650     -0.03982550       1
O               1.46340000      5.78778000     24.66950000     -0.09632160     -0.00521166      0.05954860       8
H              -0.25997700      5.22995000     23.98480000      0.05021630      0.00753215     -0.00029570       1
H               0.56069600      6.18737000     26.43740000      0.04780290     -0.00688299     -0.05020260       1
O               8.18710000     10.86620000     19.80910000      0.05563160      0.06448350     -0.00514042       8
H               7.61554000      9.29359000     19.60960000     -0.05176110     -0.08343530      0.00188803       1
H               9.41634000     10.75570000     18.45850000      0.00289658      0.01340030      0.00593102       1
O              15.15660000     26.29080000     22.09340000     -0.00762105      0.00204290      0.05401760       8
H              16.57880000     25.01740000     22.33520000     -0.03777070      0.02778870      0.00739412       1
H              14.26440000     26.88680000     23.81630000      0.04888460     -0.03219340     -0.06087950       1
O               9.47532000      1.92212000     10.87880000     -0.14643500      0.18173300      0.00238585       8
H              10.51060000      0.80506300     11.09580000      0.16572000     -0.19145900      0.03588090       1
H               9.04944000      1.87928000      9.18209000     -0.01527360     -0.00305366     -0.04058600       1
O              18.13530000     21.59920000     20.60410000     -0.23693100      0.03655780     -0.06311470       8
H              19.51160000     21.06290000     21.04320000      0.23659500     -0.06728360      0.07189820       1
H              17.23420000     19.90970000     20.78480000      0.00157438      0.03027700     -0.01265930       1
O               0.36840300      6.89304000      4.72767000      0.01610200     -0.01004410      0.00171032       8
H               0.65239500      8.54866000      5.66953000      0.01629450     -0.05630420     -0.01519210       1
H               1.60711000      5.37867000      4.87702000     -0.02942180      0.06620850      0.01157990       1
O               9.24554000     19.28980000     16.26000000     -0.04632310     -0.00053539      0.10740400       8
H               9.12329000     20.61570000     17.77190000      0.01594090     -0.02678040     -0.06553400       1
H               7.99600000     18.00620000     17.28430000      0.03782660      0.02828740     -0.04111830       1
O              12.30000000     10.34790000      5.98516000     -0.19666100      0.10102300      0.15173600       8
H              11.52160000      9.15884000      7.32859000      0.01588100      0.03872060     -0.03332010       1
H              13.37440000      9.41584000      5.40742000      0.18377800     -0.15325200     -0.11048900       1
O              21.29640000      7.44802000      7.83593000      0.00724924     -0.02046820     -0.03142510       8
H              21.70880000      6.06617000      6.45655000     -0.00308442      0.06865070      0.04081810       1
H              21.71490000      9.26782000      7.51799000     -0.00311930     -0.05173400     -0.01090730       1
O              23.00430000     21.22130000     16.06100000      0.01327820     -0.06659270     -0.00590189       8
H              23.34520000     19.29520000     16.31110000     -0.00739047      0.05759650     -0.00596424       1
H              21.48570000     21.47210000     16.97810000     -0.00796611      0.00489609      0.00879482       1
O              20.74750000     16.38620000     24.19450000      0.10096400     -0.04833300      0.11943800       8
H              19.82390000     15.96140000     25.69430000     -0.01407660     -0.00078719     -0.01342480       1
H              20.02800000     17.00360000     22.87940000     -0.08020370      0.04435350     -0.10791500       1
O              17.55860000      4.63281000     19.43650000      0.00734785     -0.02317830      0.00443533       8
H              17.07930000      3.33807000     20.69680000     -0.00074987      0.01047300     -0.01386870       1
H              18.74510000      3.72881000     18.34410000     -0.01320540      0.01235140      0.00545376       1
O              21.28770000      2.46607000     15.15100000     -0.09651270     -0.08653430      0.05682300       8
H              21.86930000      2.47772000     16.84440000      0.00823615     -0.01278630      0.00781437       1
H              22.26270000      3.53927000     14.38710000      0.07821620      0.08933760     -0.06772600       1
O              12.38640000     14.74240000      3.82581000      0.03404160      0.21261400     -0.06779680       8
H              11.96790000     13.25760000      4.09480000     -0.04950190     -0.20634300      0.04990980       1
H              11.40310000     15.04440000      2.27606000      0.01073830      0.00648365      0.01149980       1
O               4.38825000     13.04000000     12.00830000      0.04581650      0.04808010      0.01023510       8
H               4.85352000     13.91980000     10.23390000      0.00146492     -0.02532060      0.07324100       1
H               5.40162000     13.89270000     13.54250000     -0.04020860     -0.02659450     -0.07064740       1
O               9.10248000     20.16850000      4.76900000      0.01099410     -0.10189600     -0.05892460       8
H               8.03721000     18.69440000      3.81103000      0.03019180      0.05821600      0.03277970       1
H              10.86090000     19.38710000      4.26535000     -0.06062070      0.03283960      0.02822530       1
O              22.76270000     19.59940000      3.56977000     -0.05902470      0.17466900      0.21369500       8
H              22.74000000     21.69980000      3.57080000      0.00748779     -0.09519060     -0.01282740       1
H              23.13500000     19.04120000      2.16750000      0.05571150     -0.07140150     -0.21466100       1
O              13.88870000      5.82685000     10.68300000     -0.07829550     -0.02235390      0.02337690       8
H              15.52600000      5.14387000     10.50380000      0.01868090     -0.02216960     -0.00435715       1
H              12.66530000      4.43311000     11.36920000      0.04341280      0.04600230     -0.02887490       1
O               4.38464000     18.45120000     13.97740000      0.09230660      0.02515230      0.02753630       8
H               5.56339000     17.49590000     15.20430000     -0.04499850      0.01648890     -0.03313330       1
H               5.76053000     19.88320000     13.70200000     -0.05575260     -0.04141950      0.00249243       1
O              14.35130000     16.06190000     15.45900000      0.04694860     -0.07163910      0.07865460       8
H              14.39290000     16.83500000     14.00970000      0.01346380      0.05039670     -0.12136800       1
H              12.87690000     16.64910000     16.08130000     -0.06826080      0.02017790      0.03633150       1
O              16.63590000     10.50690000     10.07450000     -0.03006430      0.04653350     -0.03714750       8
H              15.36760000     11.09120000      8.69245000      0.03114150     -0.04307820      0.04588810       1
H              16.89010000      8.71771000     10.27480000     -0.01451510      0.00638300     -0.01209210       1
O              17.80180000      8.22316000     23.40420000     -0.20668100     -0.01006410     -0.08969600       8
H              18.59890000      7.25718000     22.31140000      0.04697030     -0.06081630     -0.07950710       1
H              18.81050000      8.63960000     24.49850000      0.15707500      0.07216660      0.16765500       1
O              18.44100000      3.93286000     10.55590000     -0.03880470     -0.04425110      0.02897910       8
H              18.03160000      3.57034000     12.38440000      0.03104550      0.01749240     -0.03755900       1
H              19.51160000      5.29835000     10.19380000      0.02436390      0.02140450      0.01046490       1
O               8.25191000     16.45290000     25.98660000     -0.02531950      0.08354740     -0.07328150       8
H               6.57554000     16.43430000     24.95800000      0.05164440     -0.00133809      0.03903580       1
H               8.96220000     18.39410000     24.92620000     -0.02313660     -0.06927390      0.04101530       1
O              25.44340000     24.11810000     23.67510000      0.00386166     -0.09315930     -0.09068940       8
H              26.08110000     22.32000000     23.87470000     -0.01482410      0.04170290     -0.00728364       1
H              25.76880000     24.71840000     25.19400000      0.01190380      0.04673390      0.09670660       1
O               8.79735000      5.12924000     24.31970000      0.03173310      0.14254100      0.21417200       8
H               9.56650000      5.68320000     22.98910000      0.08924390      0.07969580     -0.11028900       1
H               8.30345000      3.94702000     23.48950000     -0.11374900     -0.23513800     -0.11795900       1
O              14.72040000     17.33420000      8.54188000     -0.06048430     -0.05233780     -0.01895790       8
H              16.44100000     17.25100000      8.58668000      0.06642960      0.01104530      0.00346413       1
H              14.36460000     15.58940000      7.81542000     -0.00591612      0.04761830      0.01365410       1
O               4.68427000      7.79202000     10.85590000      0.02261170      0.05403330      0.00894677       8
H               5.48491000      9.44924000     11.98160000     -0.04190860     -0.06673780     -0.06821200       1
H               4.76139000      8.06429000      8.92643000      0.00802632      0.00651744      0.06056140       1
O               8.24297000     25.21160000      5.79364000     -0.19248500     -0.04938710      0.17437100       8
H               7.62667000     22.59150000      6.78808000      0.04280450      0.09115830     -0.04904050       1
H               9.45892000     25.12780000      4.79695000      0.15656500     -0.03455390     -0.12588600       1
O               3.29809000     16.39680000     22.99180000     -0.12021300      0.23481800     -0.13903500       8
H               3.77312000     15.11580000     23.65470000      0.07025650     -0.24324800      0.12315400       1
H               1.45912000     16.22980000     22.47550000      0.04826230      0.00143693      0.01150460       1
O               1.73037000     11.81080000      0.69528200      0.21743000      0.20550200     -0.19432700       8
H               0.90051500     10.90990000      1.53682000     -0.17632300     -0.21326600      0.18511000       1
H               3.45579000     11.12560000      0.32311100     -0.03462750     -0.00008354      0.01082550       1
O               7.87315000      5.48957000     14.30520000      0.11654400     -0.02587340      0.03215500       8
H               6.50204000      5.11206000     13.41140000     -0.08815820     -0.00630729     -0.04742050       1
H               9.02282000      4.23330000     13.36770000     -0.02641860      0.03502960      0.02461790       1
O              23.05150000     10.87730000     22.88310000     -0.14979300     -0.00727553      0.17281800       8
H              23.61040000     12.05280000     24.18660000     -0.01531960     -0.00883174     -0.00741272       1
H              24.21700000     11.03960000     21.86190000      0.16821500      0.01872100     -0.15236400       1
