192
TotEnergy=-1103.11493000 cutoff=-1.00000000 nneightol=1.20000000 pbc="T T T" Lattice="22.62415000       0.00000000       0.00000000      -0.00000100      22.62415000       0.00000000      -0.00000100      -0.00000100      22.62415000" Properties=species:S:1:pos:R:3:force:R:3:Z:I:1
O              19.05710000     19.22040000      6.32231000     -0.09177960      0.04282730     -0.01723660       8
H              17.19970000     19.94890000      5.65815000      0.08520580     -0.02712910      0.03177130       1
H              18.94270000     17.53780000      5.69077000      0.00994346     -0.01723250     -0.00972346       1
O              16.42390000      2.10959000      4.93378000     -0.01479970     -0.02590110     -0.01963450       8
H              17.59450000      2.36036000      3.49724000      0.00122143      0.00102451      0.02505590       1
H              17.04540000      2.55047000      6.58172000      0.01437920      0.01701320     -0.01274690       1
O              17.37310000      4.85157000      8.78659000     -0.02269290      0.06578780     -0.00656644       8
H              18.65460000      3.66996000      9.10864000      0.03814380     -0.00543766      0.02550570       1
H              17.91470000      6.72654000      8.83032000     -0.00224502     -0.04858630     -0.00913149       1
O               9.00949000     15.45340000     13.16310000      0.01368020      0.01296970     -0.02957340       8
H               8.70766000     15.68430000     14.88100000     -0.00605879      0.00300216      0.03416430       1
H              10.57070000     16.39610000     12.67390000     -0.03340000     -0.01524650     -0.00029092       1
O              17.49620000     15.38780000     15.18760000      0.04252620     -0.01186420     -0.12427300       8
H              16.60550000     16.67960000     15.73880000     -0.06260720      0.07991190      0.03167620       1
H              17.84470000     14.46190000     16.51940000      0.01903840     -0.06639750      0.09317950       1
O               2.65658000     13.39050000      8.23233000     -0.03373950     -0.00293358      0.02838070       8
H               1.53717000     12.67980000      6.78368000      0.00788823      0.01476570      0.03602040       1
H               1.48902000     13.78220000      9.84677000      0.02305190     -0.01946470     -0.05286280       1
O              12.96570000     10.00800000     20.81230000      0.02387260     -0.01398090      0.08002030       8
H              11.68240000     10.25440000     19.74500000     -0.06347460      0.00985359     -0.07398020       1
H              11.78540000      9.69970000     22.41850000      0.03498680      0.01205160     -0.01207450       1
O              17.30450000     21.68890000     14.67350000     -0.04488330     -0.00070297     -0.06551890       8
H              18.19900000     22.89130000     15.64690000      0.01966860      0.00410607      0.01643390       1
H              15.59300000     22.49070000     13.98470000      0.04600010     -0.00546377      0.00975340       1
O               1.15084000     21.03610000      5.66903000      0.02967910     -0.05164370      0.00447769       8
H              -0.30891500     19.93980000      5.72151000     -0.01398440      0.02903280     -0.00109504       1
H               1.23482000     22.81880000      5.50387000     -0.03165070      0.01893530     -0.00538250       1
O               8.18355000      4.56685000      9.14318000     -0.01012590     -0.00655555      0.00541218       8
H              10.01710000      4.49814000      9.70003000     -0.03131950      0.03471850     -0.01658470       1
H               7.26421000      6.19132000      8.81921000      0.03275530     -0.01299190     -0.00177005       1
O               2.37892000     20.80580000     11.72850000     -0.04797690      0.03293520      0.01706270       8
H               0.52900000     20.28010000     11.42550000      0.01167700      0.02589650      0.02298170       1
H               2.86202000     19.35380000     10.93170000      0.04809940     -0.04890650     -0.02090720       1
O              18.83650000      1.57882000     18.29110000      0.02606580      0.00954332      0.00098591       8
H              18.51440000      0.45161300     19.79670000     -0.01907140      0.01857780     -0.02130720       1
H              17.45450000      2.22186000     17.27770000     -0.00638517      0.01592670      0.03739310       1
O               2.22589000      8.13364000     12.86860000      0.04370810      0.02466150      0.03197330       8
H               0.46185200      7.67042000     12.95050000     -0.01513760      0.00271506     -0.00053952       1
H               2.82769000      9.09622000     14.53420000     -0.02972960     -0.02065360     -0.04618150       1
O              13.38980000     21.29380000      7.78772000      0.02446270      0.02312220     -0.04233350       8
H              11.84220000     21.81060000      6.75797000      0.01240590      0.00946307      0.02500350       1
H              14.74090000     22.23690000      6.82078000     -0.02613410     -0.01682770      0.02181710       1
O               8.79528000     21.06910000     17.61450000     -0.00624337     -0.00159242     -0.13747900       8
H              10.29480000     20.57100000     16.60150000     -0.01060140      0.00288030      0.03007130       1
H               8.98353000     21.11410000     19.26630000      0.02892610     -0.00201171      0.10370700       1
O              21.98400000     11.63520000      5.17173000      0.04430080     -0.07016050      0.02992080       8
H              21.55010000     12.95470000      4.18222000     -0.02436390      0.07002390     -0.05265260       1
H              20.42180000     11.30620000      6.04049000     -0.01799010     -0.01556570      0.02066280       1
O               5.36591000     17.13160000      9.84591000      0.12028700      0.09211360      0.09837760       8
H               4.45595000     15.91630000      9.21658000     -0.06899380     -0.10908600     -0.04999300       1
H               6.73675000     16.58920000     11.25400000     -0.04291270      0.00518481     -0.03991400       1
O               1.82031000      9.80839000     20.27730000     -0.01111420     -0.02714540      0.06536480       8
H               1.88374000     10.50780000     18.73570000      0.00771625      0.03963550     -0.07363100       1
H               3.25358000      8.67840000     20.24250000      0.00196407     -0.00584678      0.01229030       1
O              12.91390000      1.53561000     13.93740000     -0.08073210     -0.00697865      0.04558180       8
H              13.41780000      2.27879000     15.76650000     -0.02205970     -0.00939202     -0.04947420       1
H              10.85500000      1.03009000     14.05720000      0.09589550      0.02088170      0.00138288       1
O              14.58030000      5.61510000     22.24450000      0.00777184     -0.02587990      0.06664870       8
H              14.54410000      5.61762000     24.27540000     -0.00683032      0.00638764     -0.07863000       1
H              14.05270000      7.19325000     21.46050000     -0.00181546      0.00630316      0.01537370       1
O              12.86140000      5.08348000     10.46840000     -0.15341000      0.03681200      0.07688460       8
H              14.16850000      5.14575000      9.53803000      0.14568700      0.00071090     -0.09938960       1
H              12.74560000      3.55615000     11.28920000      0.01424190     -0.05207890      0.03205670       1
O              13.64260000     19.36330000     15.95570000     -0.01318690     -0.03171320      0.08051330       8
H              15.24730000     20.07550000     15.41630000     -0.00221135     -0.00244186      0.01148800       1
H              13.89370000     19.26310000     18.05990000     -0.02224370      0.00696884     -0.06696570       1
O               9.69459000      0.84069100      5.84526000     -0.01571940     -0.01708020     -0.01977860       8
H               9.22878000      2.23459000      6.92937000     -0.00903238     -0.00207317      0.00540916       1
H               8.21171000     -0.42532400      5.90774000      0.00871645      0.01947140      0.01196970       1
O              16.66970000     13.32410000     19.84850000     -0.02408230     -0.01290750     -0.00476537       8
H              16.40050000     14.50260000     21.16310000      0.00679225      0.01802150      0.01926310       1
H              15.20290000     12.22660000     20.27760000      0.00984377     -0.00038738     -0.01039050       1
O               2.58611000     20.20650000      1.06000000      0.08166750      0.06729810      0.08710820       8
H               2.21019000     19.94560000      2.89439000     -0.00553497      0.00610111     -0.02724700       1
H               1.56195000     19.41020000      0.06051000     -0.08034060     -0.07034370     -0.06970030       1
O              12.44650000     17.86440000     10.85430000     -0.00245651     -0.04914040      0.05448400       8
H              12.70040000     18.20500000     12.64930000      0.01480010      0.00676765     -0.00643853       1
H              12.84710000     19.34900000     10.04950000      0.01729460      0.05447990     -0.03227670       1
O               2.94042000     11.95670000     15.83260000      0.01972800      0.04359770      0.05718890       8
H               2.98429000     12.41510000     14.13260000     -0.00201235      0.01912870     -0.02607050       1
H               3.63538000     13.58560000     16.92650000     -0.00830545     -0.05832550     -0.03103470       1
O              20.70700000      1.85740000      2.26597000     -0.04818680     -0.02788410      0.00628711       8
H              21.53410000      2.31996000      3.79750000      0.00756943     -0.00366045      0.02761020       1
H              21.80960000      2.61469000      1.16039000      0.02388550      0.02203960     -0.04550750       1
O              16.81370000     11.39160000     12.17400000     -0.04316080     -0.00432132      0.01115620       8
H              15.20370000     10.26250000     12.68650000      0.03382530      0.02433300     -0.00335412       1
H              16.59690000     13.10330000     12.92510000      0.00404446     -0.02080290     -0.00839774       1
O              13.58740000     19.69160000     21.20320000      0.07259230     -0.00345116      0.00063812       8
H              15.52590000     20.17540000     21.52440000     -0.05527640     -0.01342480     -0.00690364       1
H              12.73520000     20.73290000     22.41370000     -0.01635980      0.00835363     -0.00605817       1
O               6.07585000      8.91829000      3.70596000     -0.02414920      0.02320530      0.00864402       8
H               5.75219000      9.34382000      5.51132000      0.01420610     -0.01236640     -0.02053880       1
H               4.21425000      8.85217000      3.07998000      0.03647860     -0.00653904      0.01558140       1
O               1.70164000      7.60953000      3.42955000     -0.05560870      0.00059730     -0.08498950       8
H               0.88556200      7.13826000      1.62937000      0.02771470      0.01296840      0.05851860       1
H               0.73670600      9.18631000      3.83047000     -0.00305084     -0.00686808      0.00933493       1
O               7.05198000     17.94820000     -0.31212000      0.01581270      0.02794780      0.00802511       8
H               8.66931000     17.91380000      0.70151200     -0.03403250      0.01719400     -0.01200240       1
H               6.14278000     19.64300000     -0.12219300      0.02380780     -0.05264400      0.00469403       1
O               5.68067000      6.95926000     21.43150000      0.00422733      0.00045104     -0.06100910       8
H               5.01631000      5.40052000     21.84260000     -0.01822180     -0.05777970     -0.00420948       1
H               5.83290000      7.58948000     23.00820000      0.01847390      0.03981100      0.06301950       1
O               9.44325000     10.63730000     12.16020000     -0.00993713     -0.06268800     -0.00507021       8
H               9.80493000     12.34660000     12.05820000     -0.00526524      0.03749000     -0.01375670       1
H               8.44551000      9.85043000     10.75970000      0.00774432      0.02751860      0.01959360       1
O               1.28255000      3.21756000      5.32897000      0.02984410      0.02800040      0.04298430       8
H               2.26379000      3.12602000      7.08088000     -0.02145490      0.00535222     -0.03593770       1
H               1.33278000      5.05495000      4.78232000      0.00468493     -0.02587160      0.00812816       1
O              19.70880000     10.05650000     18.09250000      0.11021800     -0.02811400      0.00088349       8
H              18.48710000     10.97260000     18.87210000     -0.04918670      0.03929640      0.03257760       1
H              21.33500000     10.42480000     19.15330000     -0.05442820     -0.01600880     -0.02789240       1
O              12.29260000      4.83017000      4.35287000     -0.01986870     -0.03914110      0.00306713       8
H              10.92220000      3.43798000      4.03825000      0.04194340      0.03640400      0.01009050       1
H              13.69510000      3.88336000      5.18353000     -0.01645890      0.00965360     -0.01867110       1
O              21.06160000      1.89206000     10.50020000      0.00714448      0.03756430     -0.05169830       8
H              22.81710000      2.42371000     10.31390000     -0.01508240      0.00640910     -0.00235327       1
H              21.12900000      0.96896600     11.93550000     -0.00719272     -0.03656140      0.05370490       1
O               4.68985000      1.71966000     21.75800000      0.05223330      0.10921500     -0.11888700       8
H               4.21153000      0.99293000     20.02660000      0.01784630      0.03397760      0.01479140       1
H               4.11325000      0.36869400     22.40720000     -0.06540340     -0.13560700      0.10641700       1
O               5.55317000      9.09155000      9.16201000     -0.06668110     -0.00525397      0.03714840       8
H               4.66168000     10.76180000      8.88543000      0.01240030     -0.01402850     -0.00024003       1
H               3.86716000      8.34272000     10.64350000      0.04132130      0.02440730     -0.03688260       1
O               6.84089000      6.40623000     14.13140000     -0.05148160      0.01492920     -0.06284150       8
H               5.16703000      7.25600000     13.47950000      0.04924470     -0.03230170      0.03999380       1
H               7.23193000      5.98015000     12.34360000      0.01524460     -0.00797046      0.03201130       1
O               3.24104000      2.70005000      9.72166000      0.02160000      0.02188180      0.00181283       8
H               3.17987000      0.94396000     10.14170000     -0.00145356     -0.02968420      0.00543038       1
H               5.01848000      3.12575000      9.97196000     -0.00465045      0.00240849     -0.00536105       1
O              20.03730000      8.09479000     13.65410000      0.08929430     -0.09030510     -0.02427620       8
H              18.74590000      9.11734000     13.61980000     -0.11041800      0.07853000     -0.03966600       1
H              20.32910000      8.59979000     15.29850000      0.02374750     -0.00224214      0.06292950       1
O              13.32370000      8.39507000     14.05240000      0.01463800     -0.05721680     -0.02701270       8
H              13.18360000      6.75431000     12.80240000      0.00740805      0.05284760      0.02679160       1
H              11.73580000      9.15928000     13.57140000     -0.01536730      0.01022980     -0.00255337       1
O              14.91140000      4.53261000     17.16130000     -0.00126924     -0.11720600     -0.19072400       8
H              14.97530000      5.16836000     18.57300000      0.01367460      0.07894020      0.23032000       1
H              14.45890000      5.91309000     16.18270000     -0.01349030      0.03729940     -0.03823830       1
O              21.67710000      5.12093000     20.84760000     -0.02189240     -0.10425000      0.03031950       8
H              21.66700000      6.51462000     19.88600000     -0.00484284      0.06210910     -0.04596730       1
H              20.50190000      3.75311000     19.99820000      0.03059550      0.04567200      0.01478760       1
O               0.47465400     15.53790000     21.88930000     -0.02004860      0.00985583     -0.06009920       8
H               2.03121000     14.96040000     21.20830000      0.02460140     -0.01183530      0.01148980       1
H              -0.30616300     16.01230000     20.19900000      0.00446839      0.00077639      0.04150490       1
O              10.67530000      0.88386300      0.19139400      0.05130810      0.04131370      0.00003505       8
H               8.89036000      1.32789000      0.24221700      0.01659300      0.01469930     -0.00099492       1
H              12.06610000      2.41088000      0.15142400     -0.06960930     -0.04620510     -0.00343781       1
O              10.67280000     18.58330000      3.25622000     -0.00444629     -0.05049420      0.00078597       8
H              10.58580000     17.04590000      4.45036000      0.00431513      0.05041300     -0.01961800       1
H              11.33360000     20.13230000      3.87423000      0.00067217     -0.00298091      0.00979803       1
O               5.84600000     20.94870000      6.97366000     -0.03389640      0.01682460     -0.04693780       8
H               4.37967000     21.32540000      5.54855000      0.05105830     -0.03330900      0.07881330       1
H               5.42517000     19.76140000      8.43422000     -0.00018128      0.01265540     -0.04091270       1
O               5.86179000     13.99030000     19.10780000      0.03124040     -0.00044805      0.02087580       8
H               6.84271000     15.02740000     20.43710000     -0.02979670     -0.01802300     -0.03434950       1
H               6.69498000     12.27980000     18.74430000     -0.00821410      0.02750880      0.01045150       1
O              13.94250000     12.66390000      5.42966000      0.01555480     -0.00242741     -0.01710210       8
H              13.35620000     11.18390000      4.42156000     -0.02479000      0.03176030      0.01473140       1
H              12.66430000     13.67960000      6.33023000     -0.00480963     -0.03151970     -0.01321560       1
O              10.91400000      9.33027000      2.54351000     -0.06735170      0.10646900     -0.03448730       8
H               8.90704000      9.51749000      2.58456000      0.04916470     -0.02513280      0.01781500       1
H              11.69550000      7.86090000      2.87136000      0.01025520     -0.08600960      0.02580070       1
O               4.02597000     21.49520000     17.34410000      0.00450090      0.01228450     -0.02333110       8
H               3.28477000     22.16600000     15.77990000      0.01251030     -0.00634739      0.01121100       1
H               5.97393000     21.40730000     17.03820000     -0.03008070     -0.00778251      0.00854327       1
O              17.89020000     10.18700000      7.54255000     -0.03036720     -0.00978818     -0.02165010       8
H              16.34390000     10.35950000      6.19730000      0.05669910      0.00741728      0.07991090       1
H              17.68600000     10.73420000      9.47116000     -0.02154860      0.00328062     -0.04364720       1
O              20.15550000     15.46680000      3.11958000     -0.00389894      0.00432994     -0.04524450       8
H              21.57430000     15.56290000      1.69883000     -0.04858590     -0.00089147      0.03052530       1
H              18.33530000     15.43360000      2.33042000      0.05173500      0.00761066      0.00836358       1
O              22.28950000     13.99580000     12.42750000     -0.01884060     -0.03184030      0.02166240       8
H              21.16250000     15.39260000     12.84900000      0.00324297     -0.00991564     -0.00509560       1
H              21.65780000     12.40920000     13.33770000      0.01082270      0.04518620     -0.02626290       1
O              20.48790000     19.32660000     11.62650000     -0.01809810     -0.00948476      0.03346340       8
H              20.02310000     19.37800000      9.86556000     -0.01938680      0.00343328      0.00086794       1
H              19.13520000     19.93040000     12.93150000      0.02397950     -0.00572777     -0.04475680       1
O              10.04670000     15.40260000      7.25395000     -0.04782770     -0.04153640     -0.03156510       8
H               8.22611000     15.89810000      7.26603000      0.03454430      0.00353284      0.00845494       1
H              11.18690000     16.64060000      7.70681000      0.00912752      0.03966450      0.03019150       1
O              15.51250000     15.63990000      1.61523000      0.03877130     -0.07819770      0.06598790       8
H              15.05490000     14.53710000      3.31665000     -0.00222683      0.02717030     -0.04939320       1
H              14.26290000     16.74750000      1.23061000     -0.05236090      0.04653070     -0.01100170       1
O              18.25810000     21.20760000     21.86700000      0.00721066      0.00399549      0.02828230       8
H              19.52570000     20.35280000     20.89890000      0.01351590     -0.01337670      0.00218041       1
H              19.00320000     21.86430000     23.49330000      0.00014885     -0.00514936     -0.02397940       1
O               8.09284000      9.52514000     17.92820000     -0.06644090     -0.03973840      0.11939200       8
H               6.78983000      8.00067000     18.29800000      0.06078530      0.05781140     -0.01494100       1
H               8.52051000      9.54171000     16.31310000      0.01754200     -0.00797602     -0.10294300       1
O              22.03170000     19.11540000     18.13920000      0.09434980      0.11996300      0.22178700       8
H              21.91280000     18.57400000     16.70910000     -0.03765200     -0.09683080     -0.24403200       1
H              23.92850000     19.99400000     17.86990000     -0.05391820     -0.02609170      0.02355240       1
