192
Lattice="24.10194 0.0 0.0 0.0 24.10194 0.0 0.0 0.0 24.10194" Properties=species:S:1:pos:R:3:force:R:3 TotEnergy=-1102.6977 cutoff=-1.0 nneightol=1.2 pbc="T T T"
O        4.99915000       4.82848000      18.81690000       0.06425770       0.00778304       0.00829733
H        7.18705000       5.40656000      19.29300000      -0.08420690      -0.04699930      -0.01654320
H        4.85581000       3.01086000      18.34250000       0.02163300       0.03084770       0.01034380
O       16.99680000       4.89924000       0.95709200      -0.03416170      -0.00856479       0.03300360
H       17.56580000       5.77342000      23.63530000       0.01247190       0.01764590      -0.02370410
H       15.58950000       5.88032000       1.67084000       0.02149100      -0.01127200      -0.01135120
O       15.22900000      14.44400000       0.68011000       0.02981160      -0.04489300       0.02776030
H       13.86190000      15.06320000      23.90868600      -0.02830460       0.02976700      -0.01945170
H       16.50790000      15.68460000       1.00815000       0.00247296       0.01307050      -0.01058660
O       13.60220000      19.91600000       0.44558600       0.03744350       0.06525070      -0.04816740
H       14.17160000      21.73070000      23.67374100      -0.03154250      -0.07090040       0.03792060
H       13.45740000      20.35710000       2.18727000      -0.00365329       0.00053855       0.01727820
O        2.46539000      19.95690000       3.84837000      -0.03663970      -0.07044240       0.04130010
H        3.36536000      18.56940000       3.13522000       0.00120091      -0.00790769       0.00209874
H        3.15767000      21.33760000       3.19315000       0.03691700       0.07642140      -0.04065330
O       11.42630000      17.82140000      10.68950000       0.06046440      -0.03683680      -0.11204800
H       12.94600000      16.63170000      10.86370000      -0.02506040       0.01944040       0.00855490
H       10.76890000      18.10040000      12.19050000      -0.03907820       0.01925270       0.09884710
O       11.21610000       9.55900000       6.55720000      -0.02878630      -0.00098000      -0.00858846
H       12.41080000      10.62270000       7.28417000       0.03983280       0.01218040       0.00947755
H        9.81495000      10.65850000       7.04596000      -0.00476032      -0.00097307      -0.01309980
O       18.37830000      19.97600000       7.86561000       0.01007350       0.03672000      -0.01548300
H       18.06270000      20.14020000       9.72139000       0.00468421       0.00209708      -0.01754790
H       19.50600000      21.35690000       7.12147000      -0.01859180      -0.03788210       0.02397770
O       17.36730000      11.40840000       4.53827000      -0.00314812      -0.05848670      -0.06609700
H       17.77230000      11.84250000       6.21262000       0.00260930       0.04329810       0.01535780
H       16.45530000      12.14830000       3.11364000      -0.00803397       0.02403770       0.03565140
O        1.57623000      16.63920000      21.44650000       0.09244160       0.02136660       0.03181500
H        2.48827000      18.69910000      21.14940000      -0.03169550      -0.07526210       0.00246633
H        3.18347000      15.38660000      21.87150000      -0.05985330       0.04902730      -0.02918610
O       13.01960000       6.01290000      16.21100000       0.00888447      -0.01614800       0.05509500
H       11.78100000       5.07617000      17.33490000       0.03137650       0.02578350      -0.01885830
H       14.52680000       6.44043000      17.36300000      -0.04305420      -0.01035880      -0.03569490
O       23.53310000      23.24960000      23.90467700       0.00538443       0.06107330      -0.02718130
H        0.19073700      21.93910000      23.02880000       0.01310180      -0.03849710      -0.01259090
H        0.04602300       0.56882700      22.75860000      -0.02005050      -0.02300160       0.04030770
O        0.53661200       0.70298500      15.32810000       0.02957370      -0.00467244      -0.02823400
H        0.67324700       1.07583000      17.02540000      -0.00759020       0.01351900       0.04604240
H        2.26306000      24.08310000      15.12420000      -0.02670560      -0.00398463      -0.01418120
O       20.70560000       3.93593000       4.67808000       0.02724980       0.01185520       0.09571770
H       19.68150000       3.93269000       3.26188000      -0.03975560       0.01380770      -0.02588110
H       20.02080000       4.81228000       6.33228000       0.00308534      -0.02115340      -0.06326950
O        8.83268000       7.36145000      10.39570000       0.03413010       0.00728895       0.04160760
H        9.26559000       7.81793000       8.76018000       0.01738470       0.00596069      -0.03561980
H        7.26120000       6.66075000      10.27000000      -0.04810470      -0.02799330       0.00301843
O       17.69510000       7.17756000       7.92373000      -0.01573590       0.01881470      -0.04494900
H       17.63450000       8.16496000       6.27180000       0.00068638      -0.02193870       0.03913110
H       15.92540000       6.62411000       8.18772000       0.01925610       0.00003074       0.00203726
O        3.56729000      20.94650000      14.33010000      -0.10348800      -0.00258398      -0.03551980
H        3.11238000      21.19780000      12.48770000      -0.00101875      -0.00949976       0.02873050
H        5.21970000      21.11280000      14.31780000       0.11351400       0.00986688      -0.00003759
O       11.87290000      10.61410000      13.78950000       0.00409057       0.01588800       0.05191500
H       11.50670000       9.10475000      14.75950000       0.01286310       0.00610387       0.01473420
H       11.49970000       9.88925000      12.28190000      -0.01598000      -0.01596910      -0.06829940
O       22.05070000      23.06630000       4.87032000      -0.00378477      -0.00618096       0.03822010
H       21.23550000       0.56100800       5.20619000      -0.00942047       0.00587053      -0.01998500
H       21.83750000      22.55950000       3.15877000       0.00716240       0.00788511      -0.01178830
O       17.55580000       0.48978700      20.08280000       0.03235790       0.00574432      -0.01111200
H       19.13790000       0.97836700      19.09710000      -0.05009330      -0.02382230       0.02261330
H       17.63290000      22.78040000      20.43790000       0.01285650       0.01569670      -0.00774199
O        8.93736000       8.85724000      23.85294600       0.08080830       0.04415150      -0.00808734
H       11.24030000       9.45030000       0.11183800      -0.07728580      -0.02445450      -0.01435630
H        7.86292000       8.96084000       1.22940000       0.01128820       0.00279269       0.00778698
O       13.23170000      20.94650000       5.87832000      -0.00104901      -0.00238244      -0.00733894
H       12.26920000      19.90380000       7.00066000      -0.01289780      -0.00111890       0.00338234
H       14.74830000      21.12150000       6.82841000       0.02055020      -0.00361679       0.00406240
O        2.87929000      21.39360000      19.64800000       0.03836400       0.01738840       0.01637120
H        2.66703000      21.03170000      17.85740000       0.00447682      -0.00211227       0.00252364
H        4.71301000      22.12470000      19.83230000      -0.04201160      -0.02458880      -0.02101300
O        8.19041000       0.34041100      12.04650000       0.05313940      -0.07267950       0.00520716
H        7.81004000      23.86800000      10.34610000      -0.00562469      -0.00116009      -0.00765193
H        7.31750000       1.71709000      12.46170000      -0.04903450       0.07209410       0.01317960
O        8.98436000      18.71530000      15.76240000      -0.07436550      -0.04424140      -0.05257850
H        9.47636000      17.67450000      17.19390000       0.00693425      -0.00130687      -0.00463599
H        7.34281000      17.23510000      14.76960000       0.06562740       0.05864480       0.04850520
O        0.14930100      14.63120000       8.38995000      -0.00682369      -0.05372160       0.00754018
H       23.48786200      12.97710000       9.74729000       0.04418610       0.05517620      -0.06630050
H        0.98698300      14.31130000       6.54533000      -0.04460910      -0.00284000       0.06996960
O        1.50420000       4.25221000      23.01200000       0.04453950       0.03983290      -0.02870210
H        3.00589000       4.74051000      21.90530000      -0.03144660      -0.01945500       0.01089810
H        1.46617000       5.82239000      24.04891300      -0.00841412      -0.03065480       0.00794669
O       19.72550000      12.29680000      21.48760000       0.00005972       0.03469430      -0.05144000
H       20.83340000      13.62940000      20.76650000      -0.02504580      -0.01857240       0.00411931
H       20.65070000      11.90740000      22.92790000       0.02239440      -0.02155230       0.04123820
O       19.54110000       6.24841000      13.04830000      -0.00809294       0.03116470       0.09094040
H       18.72000000       7.05877000      14.70310000       0.03665930      -0.03242470      -0.04337380
H       18.18830000       6.71892000      12.04930000      -0.02622930       0.00592121      -0.04481020
O        3.96288000       4.57414000      12.33160000      -0.03758310       0.00879236       0.07501310
H        3.50636000       4.92905000      14.41090000       0.01603980      -0.02325750      -0.10066200
H        2.45354000       3.76532000      11.50830000       0.02525930       0.01602940       0.02164810
O       18.81280000      14.90080000       8.36105000       0.05255310       0.00387428       0.01781830
H       20.71030000      15.19410000       8.99074000      -0.05611750      -0.01266310      -0.02863140
H       18.39570000      16.57170000       7.70529000       0.00399706      -0.00279020       0.00186544
O       10.45630000      15.54570000      19.30260000       0.00123005      -0.00485484      -0.00476340
H        8.93639000      14.77820000      18.62380000       0.00409908       0.00009675       0.01727570
H        9.93117000      16.84760000      20.49070000      -0.00951510      -0.00514035       0.00665324
O       19.75660000      18.94060000      20.51920000      -0.04513990      -0.01608180      -0.07674930
H       21.38080000      18.39340000      19.87710000      -0.00583592       0.00255306       0.00123192
H       18.44860000      18.40990000      18.89960000       0.05238710       0.01087090       0.07287510
O        1.29627000       3.04563000       7.17880000      -0.01357900      -0.05743750      -0.05300860
H       23.96694200       1.75486000       6.23826000       0.07250820       0.05534590       0.03033410
H        2.96801000       2.83542000       6.21904000      -0.04738980       0.00018632       0.02280560
O        9.06443000      18.89690000      22.99020000      -0.08307980       0.01933000      -0.00239750
H       10.78420000      19.22040000      23.34720000       0.02501070       0.02408060       0.02164150
H        7.77156000      20.30800000      23.55940000       0.05432490      -0.03926470      -0.01301490
O        7.64555000      23.05930000      18.57080000      -0.04720400      -0.02393490      -0.12299400
H        8.77295000      22.68750000      19.72880000       0.07665190      -0.01798850       0.08821720
H        8.27519000      21.64710000      17.16570000      -0.02950650       0.03877730       0.03792030
O        8.45671000      13.81550000       7.89115000      -0.09190700      -0.07082940      -0.07812110
H        7.19897000      14.29820000       6.42414000       0.04518150      -0.00796322       0.05169550
H        9.27951000      15.19990000       8.38516000       0.04327820       0.08245680       0.02865950
O        7.23874000       2.96853000       4.89965000      -0.02006700       0.06178500      -0.03100200
H        8.98897000       2.76495000       4.24320000      -0.02290360       0.01735810       0.00982669
H        6.16562000       5.51932000       4.50563000       0.03992260      -0.05039460       0.02218540
O       13.04620000       1.94998000       4.51365000      -0.03309380       0.04401170      -0.04881630
H       13.42980000       3.06267000       5.82908000       0.00943382       0.00754930       0.02928100
H       13.68990000       0.35265500       4.67844000       0.01474980      -0.04389200       0.01905540
O       17.05770000       9.97338000      17.18010000       0.00924570      -0.04406000       0.08907040
H       18.06790000      10.19900000      18.89940000      -0.02129250       0.00463165      -0.06050410
H       17.65610000      11.11730000      16.01890000       0.01825590       0.03901070      -0.02324310
O       16.41160000      15.90750000      17.39020000       0.03556390       0.11545900      -0.09144140
H       14.81870000      15.36720000      17.50370000      -0.08623140      -0.04294470       0.02418270
H       15.54820000      17.53190000      15.69550000       0.05445470      -0.07008740       0.06473710
O        5.40213000       8.41039000       4.63149000      -0.02549580       0.02216810       0.03489430
H        3.76432000       8.07042000       3.84320000      -0.01341300      -0.01158850      -0.01660700
H        4.48208000       9.50349000       6.09273000       0.04372780      -0.03757340      -0.02057290
O       10.06280000       4.76223000      20.76070000      -0.01688070      -0.01932060      -0.08744180
H       10.04220000       5.86628000      22.02780000      -0.00550294       0.07091060       0.06919280
H       10.70700000       3.29576000      21.45950000       0.01408470      -0.04832920       0.01016260
O        6.82805000      13.32270000      15.04540000      -0.03596270       0.03201240      -0.04038300
H        7.19439000      12.68620000      16.60680000      -0.00002873      -0.02500980       0.05584790
H        8.37241000      13.37260000      14.21860000       0.03527700      -0.00758405      -0.02263970
O       20.88200000       5.72573000      20.94820000       0.02415560       0.13633000       0.03121800
H       20.69540000       4.16876000      20.54530000      -0.03084420      -0.14391500      -0.03904010
H       22.60170000       5.64623000      21.54620000       0.00350209       0.00760043       0.00793012
O        5.58971000      12.11670000      20.34610000       0.05907230      -0.03678300       0.02747280
H        8.10507000      11.41280000      22.13440000      -0.06607470      -0.01447830      -0.03569280
H        5.03456000      10.46300000      19.58130000       0.01113000       0.03312350       0.02185490
O        0.02648600      14.81340000       3.00826000       0.02977570       0.03302640      -0.07657550
H        1.05997000      15.66460000       0.76146300      -0.05053280      -0.02552420       0.07565140
H       22.39720000      15.53840000       3.04917000       0.02681810       0.00751787      -0.00457869
O        5.73196000      23.14450000       0.57549900       0.01540160       0.04528840       0.04640750
H        5.92685000       0.62825300       1.74665000       0.00119862      -0.04756600      -0.02296170
H        5.02047000      23.92714500      23.25390000      -0.01365810       0.00692775      -0.01879610
O        7.18194000      22.61350000       7.60198000      -0.09227590      -0.01070460      -0.01379840
H        7.71662000      23.92570000       6.45753000      -0.00643985       0.00406442      -0.00041416
H        5.03042000      22.55650000       7.37129000       0.10063200       0.00054568       0.01484550
O        4.00355000      10.28200000       9.69154000      -0.00982792       0.08871150      -0.05557590
H        4.02705000       8.74575000      10.36390000       0.00775733      -0.08248380       0.04480030
H        5.46512000      11.27290000      10.11770000      -0.00094286      -0.00683616       0.00591691
O       21.85820000      10.63950000       1.82657000      -0.10790200      -0.04624210      -0.01196750
H       19.27940000      10.50600000       2.27647000       0.10350200       0.00685452       0.01023540
H       22.27440000      12.06720000       2.80236000       0.01401260       0.02420710       0.01286130
O       17.45950000      20.37430000      12.77630000       0.00172724       0.06341710       0.00976555
H       15.83020000      21.27420000      13.30390000       0.04341760      -0.01229610      -0.01669530
H       18.78220000      21.85030000      12.68690000      -0.04628670      -0.04135580       0.01830690
O       22.43900000      11.62680000      12.67840000      -0.05652450      -0.06909560      -0.00604716
H       24.00178900      11.35990000      13.35890000       0.06732060       0.01701380       0.02614070
H       21.98500000       9.74942000      13.14010000      -0.01021120       0.05425010      -0.02868080
O       12.85920000       0.77711700      23.12970000      -0.00819099       0.01418160       0.00037268
H       12.64620000       1.88859000       0.43247300      -0.01784480      -0.00806649       0.03037210
H       14.37930000       1.60656000      22.71450000       0.03584410       0.00000792      -0.02960590
O       14.39380000       9.38357000      22.76500000       0.01126000       0.07289300       0.01499690
H       14.41680000       9.37059000      20.95830000      -0.00603885      -0.00872297      -0.01087970
H       15.08320000      11.27510000      22.97070000      -0.01585440      -0.05532450       0.00567783
O       20.00330000      17.84820000       1.73627000      -0.05002050       0.10160500       0.00884038
H       18.43350000      19.97660000       2.63838000       0.06446040      -0.08883070      -0.03698830
H       20.87890000      18.71530000       0.25676500      -0.02821600      -0.01929540       0.03111440
O        5.95712000      15.27990000       2.35447000      -0.08264200       0.08421290       0.05655890
H        7.34829000      16.08030000       1.86547000       0.08019600       0.03140690      -0.03600810
H        5.84773000      13.64940000       2.15623000       0.00246912      -0.11415700      -0.02374690
O        0.96546100       6.88890000       3.04750000      -0.01552980       0.02454110      -0.00019035
H        0.08926000       5.94901000       4.35257000       0.00355613      -0.00671761      -0.00454114
H       23.76260000       8.18323000       2.52688000       0.00861224      -0.00246712       0.00648840
O        1.46085000       9.90150000      17.05630000      -0.00202188      -0.14797600      -0.00150458
H        0.18129900       8.43873000      17.75700000       0.03570530       0.06980710      -0.01822940
H        2.65602000       8.32756000      16.39870000      -0.03391880       0.07444680       0.02123020
O        1.93819000      21.51420000       9.17825000       0.03530290      -0.07379980       0.04659340
H        1.49099000      22.94580000       8.44659000      -0.03444340       0.09196890      -0.03789920
H        2.01713000      20.36000000       7.79691000      -0.00507628      -0.01765970      -0.00835908
O       13.70330000       4.64939000       9.65247000       0.00293756      -0.02388210       0.01013050
H       13.95710000       3.13850000      10.68020000       0.02078110      -0.00600458      -0.00748544
H       12.16230000       4.94241000      10.50800000      -0.02836080       0.02722420      -0.00430553
O       13.37910000       0.77109100      13.55180000      -0.02083110      -0.03416810      -0.01276160
H       11.68680000      24.04807000      13.55410000       0.01869020       0.01565900      -0.01059620
H       13.25050000       1.96215000      14.86260000       0.00631460       0.01703400       0.01594900
O       15.15740000      14.86040000      11.88360000       0.00911639      -0.05920570      -0.00615619
H       16.36950000      14.13750000      10.55190000      -0.01320720       0.02708340       0.02733300
H       14.57610000      13.34520000      12.88610000       0.00728322       0.03060950      -0.01967060
O       19.35300000       1.18613000      14.98030000      -0.00930392       0.01572370      -0.02980120
H       20.96060000       0.73835500      15.54160000       0.03094870      -0.02018720       0.01210120
H       19.93360000       2.33172000      13.64180000      -0.01903960       0.00142923       0.01178840
