192
Lattice="24.45756 0.0 0.0 0.0 24.45756 0.0 0.0 0.0 24.45756" Properties=species:S:1:pos:R:3:force:R:3 TotEnergy=-1103.42155 cutoff=-1.0 nneightol=1.2 pbc="T T T"
O       23.22100000      20.90750000      18.27312000       0.01564360      -0.02308110       0.00657797
H       21.53590000      21.25175000      17.47652000       0.01743630      -0.01932190       0.00123517
H       24.04380000      19.19290000      17.86192000      -0.03472870       0.04435640      -0.00263557
O       22.18224000      21.83304000      23.45848300       0.02554010       0.00333869      -0.04819470
H       22.56424000      23.60734000      23.93113300       0.00150165      -0.02646500      -0.00723015
H       22.96834000      21.47484000      21.62000000      -0.02976940       0.01589350       0.05162130
O       12.23600000       2.04042000      16.29860000       0.00839393       0.02745190       0.04396590
H       12.60840000       3.00951000      17.88690000       0.00328668      -0.01081480      -0.02831890
H       11.73340000       0.31950300      16.85630000      -0.00887700       0.00439256      -0.01374950
O       18.19683000      16.01988000      21.87454000       0.01912620       0.02985680       0.01439760
H       20.03003000      15.59688000      21.46489000      -0.03154370       0.00586497       0.01031540
H       18.19948000      17.56895000      22.95955000       0.00239085      -0.03106290      -0.01558980
O        6.60202000       7.24764000      18.59340000      -0.09877980       0.01267770       0.05468680
H        7.42552000       8.11024000      19.88750000       0.03068430       0.02849780       0.01533900
H        7.55271000       6.52084000      17.43920000       0.07176270      -0.03771830      -0.07320010
O       18.93228000       8.98510000       6.50569000      -0.05035100      -0.07712300       0.02009060
H       18.28195000       7.33192000       7.64537000       0.02915950       0.05986510      -0.03844460
H       17.86031000       8.66325000       4.90318000       0.02569840       0.00848961       0.02251060
O       21.44114000       2.41544000      14.24760000      -0.04005610      -0.04908410       0.02577680
H       23.27774000       2.45874000      13.86790000      -0.01703660      -0.02165220       0.00805202
H       20.56564000       0.63344000      14.94070000       0.06427500       0.07161700      -0.03410170
O       21.45660000      16.27472000       7.12542000      -0.03647980       0.02478420      -0.05632630
H       22.35874000      17.76162000       5.88401000      -0.03717020      -0.06544150       0.03153940
H       19.47736000      15.94352000       6.56525000       0.08237200       0.01427660       0.01814220
O        7.73924000      14.85252000      17.58290000      -0.00220489      -0.04612810       0.00778369
H        6.67174000      14.49332000      16.00660000       0.02174320       0.00414701       0.02944080
H        7.92104000      13.25402000      18.79970000      -0.01558990       0.05070480      -0.03594540
O        7.86868000      20.90762000      23.80662000       0.05066280      -0.00169548      -0.03937110
H        9.70874000      20.81712000      23.15872000      -0.03514730       0.00991274       0.00938719
H        8.08338000      20.01542000       0.87046000      -0.01058740      -0.02200770       0.02992720
O       14.63914000       1.39776000       6.85151000       0.06223030       0.00710146      -0.01968190
H       13.90936000       2.42760000       5.59211000      -0.00832189       0.01360670      -0.01932650
H       13.34796000       1.00232000       7.93194000      -0.05504440      -0.01954950       0.04107310
O       12.70446000       4.67214000       2.88688000       0.00514225       0.02783520       0.04725720
H       10.96816000       4.60974000       2.59778000      -0.04557080       0.00831104       0.00738452
H       13.29516000       3.80694000       1.53118000       0.03589550      -0.03751770      -0.05343520
O       15.48930000      16.84562000      10.65586000       0.00235614       0.03112190      -0.02508660
H       15.96540000      15.35672000       9.72006000      -0.00199624      -0.00982416       0.00299970
H       15.23980000      16.58212000      12.38476000      -0.00540197      -0.01342220       0.02138220
O        4.73364000      15.43840000      13.58004000      -0.02478000      -0.03702770      -0.00628772
H        3.33434000      15.70400000      15.01734000       0.02425420      -0.01455200      -0.05741950
H        4.42814000      13.97980000      12.21224000      -0.00206133       0.04445570       0.05403100
O        0.16200100       1.32570000       1.87349000       0.02406830      -0.01928290       0.01336570
H        0.21349800       0.01248400       3.20577000      -0.01093330       0.02313140      -0.01787530
H        1.89874000       1.22196000       1.21321000      -0.01115740       0.00381591       0.00256899
O       16.99002000      20.89830000       6.78454000       0.00455724      -0.01728000       0.00189868
H       16.59362000      22.65350000       7.04064000      -0.01276930      -0.00222026       0.00338726
H       16.31672000      19.82030000       8.14154000       0.00653461       0.01685230      -0.00709078
O       14.98382000      12.25530000      23.90620000       0.01028640       0.03856660       0.00185544
H       14.10932000      11.14790000      22.78960000      -0.00245549       0.00282904      -0.02547360
H       15.72172000      13.75610000      22.93640000      -0.00436878      -0.03892100       0.01646560
O        2.87326000      17.22158000       5.82346000      -0.02190220      -0.07852750      -0.09679050
H        3.72466000      17.41008000       7.31626000       0.03100150      -0.00259599       0.05249850
H        3.07716000      15.35318000       4.85326000      -0.00712949       0.07376100       0.04520060
O       18.72618000      21.51630000      15.84394000       0.01372450       0.07707650      -0.00711108
H       17.64768000      23.31390000      15.55134000       0.01832570      -0.06670310      -0.00850623
H       17.68388000      20.11630000      16.05554000      -0.02889270      -0.01973650       0.01162730
O        7.15098000       4.79366000       2.89710000       0.01416200       0.01786550      -0.01091380
H        6.68658000       4.41406000       4.57200000      -0.00434403       0.00019296       0.03114220
H        7.08198000       3.13486000       2.22617000      -0.01060310      -0.01824220      -0.02504550
O        5.33914000      19.34700000       9.98046000       0.03043820      -0.03258170      -0.01329750
H        7.15574000      18.72470000       9.42086000      -0.04639260       0.02170670       0.02670680
H        4.57154000      18.22990000      11.25986000       0.02058350       0.00670455      -0.00726883
O        9.71516000       6.42762000      14.03928000       0.03086280      -0.01919680       0.00672542
H       10.68976000       7.98886000      13.84708000      -0.00199552      -0.01502600      -0.00116342
H       10.92986000       4.94244000      14.35738000      -0.03000180       0.03520720      -0.00759349
O        5.37231000       0.56944100       0.20792600      -0.02568010       0.03665830      -0.04110260
H        4.88334000       1.16126000      22.85186000       0.01031220      -0.00352235       0.04342470
H        6.32479000      23.54532200      24.33184900       0.01137050      -0.02010200       0.00196797
O       20.08544000       3.91097000       1.03764000       0.03703580      -0.06629420      -0.03273820
H       19.22784000       5.25322000       1.59994000      -0.04660180       0.07298020       0.02933110
H       21.29794000       3.44198000       2.29074000       0.00551116      -0.00720087       0.00279868
O       24.02409800      11.74698000       6.66394000      -0.06050420       0.00551138       0.00901634
H       22.65812000      10.22668000       6.48734000       0.04128210       0.06619040       0.00808959
H       23.04591000      13.72018000       7.01804000       0.01196980      -0.05808320      -0.01973370
O       12.22330000      11.17234000      11.58190000       0.05017770      -0.00400497      -0.00232973
H       10.99870000      11.64754000      10.39570000      -0.03245900       0.01440260      -0.01675300
H       13.81160000      11.59964000      10.63730000      -0.02212280      -0.01330420       0.02526050
O        6.47146000      20.25050000      18.80800000      -0.00098752       0.02792230       0.07834330
H        6.17386000      18.57240000      18.29750000       0.00307556      -0.02818420      -0.00284969
H        6.38826000      20.27760000      20.88760000       0.00755664      -0.00545993      -0.07236160
O        7.48694000      10.16804000       1.76778000       0.00850724       0.00373880      -0.00348899
H        6.91104000       8.39894000       2.06698000      -0.00414320       0.03301500       0.00221967
H        6.41884000      11.62164000       2.30788000      -0.00053793      -0.03846480      -0.00534237
O       13.52590000       9.80584000      19.53070000      -0.03016660       0.00358318       0.01641450
H       14.58470000      10.66464000      18.36090000       0.01393700      -0.00483979      -0.00469615
H       13.98160000       8.03134000      19.81400000       0.01523160       0.00127090      -0.01484660
O        3.21190000      23.79582000      17.21560000       0.04903280      -0.01974310      -0.00302795
H        1.61090000      23.36352000      17.82810000      -0.03194950      -0.01227290       0.00680371
H        4.30689000      22.21972000      17.59860000      -0.01769200       0.03691910      -0.00625111
O       23.50947400      18.53280000       3.01994000       0.04231100      -0.02495600       0.00170111
H        0.69302400      17.87270000       2.39227000      -0.02156920       0.00415528       0.02826730
H       22.98958000      19.28160000       1.51556000      -0.03054100       0.02966740      -0.03499470
O        2.50052000       2.01399000      12.81930000      -0.04744180       0.06954130      -0.10516900
H        2.16121000       0.98702900      11.24780000       0.01825110      -0.00069111       0.03948470
H        2.93154000       1.24620000      14.24800000       0.02488910      -0.06700510       0.07329420
O       15.31862000       5.08638000      19.64352000       0.00186079      -0.04465870       0.07601860
H       17.13732000       5.02778000      19.30272000      -0.00701111       0.01288090      -0.00660751
H       15.37822000       3.91618000      21.61712000      -0.01419560       0.03026410      -0.07409090
O        6.51175000       2.63488000       7.87346000       0.01039080       0.00276793      -0.01297990
H        5.80116000       4.19868000       8.72956000       0.00412048      -0.03503760       0.00823707
H        5.52996000       1.06378000       7.86926000      -0.01803650       0.02273620       0.00952320
O       12.57092000      14.43174000       3.35586000       0.04893120      -0.02733890      -0.04113130
H       12.67312000      13.93954000       1.49006000       0.00476778      -0.00210767       0.04297390
H       10.90772000      14.75964000       3.71052000      -0.05681070       0.01250080       0.00962244
O       18.64800000      11.09794000      17.28350000      -0.01883700       0.07600900      -0.03378290
H       18.59780000      11.44204000      15.44240000      -0.00198556      -0.01283460       0.02371070
H       18.94340000       9.40324000      17.55060000       0.01589130      -0.05426010       0.00627260
O        8.44136000      13.07406000       8.05802000       0.02798670      -0.05408260      -0.02345970
H        9.02416000      11.47686000       7.05849000      -0.02653470       0.05351520       0.02823490
H        6.78356000      12.59416000       8.83230000       0.01464510       0.00315770      -0.01839740
O        4.01832000       3.24195000      20.47650000       0.03939530       0.05060170       0.01372520
H        3.96622000       2.45494000      18.84000000       0.00115832      -0.01033930      -0.00468034
H        5.46792000       4.66478000      20.37880000      -0.05259100      -0.04235550      -0.00908836
O        4.12276000      11.59566000       9.39694000      -0.04911580      -0.05135580       0.02173680
H        4.35666000       9.69106000       9.94074000      -0.01188760       0.05241020      -0.01320210
H        2.22846000      11.84396000       8.89584000       0.04633950      -0.01436240       0.00242737
O       16.26610000      13.34180000       7.23964000      -0.07850100       0.01101870      -0.04917760
H       16.77220000      11.59080000       7.14024000       0.00832253      -0.00264014      -0.00453310
H       14.50820000      13.45980000       5.98274000       0.07175370      -0.00044472       0.04053700
O        2.86486000      23.32892000       8.94254000      -0.05342090       0.02411800      -0.07974620
H        3.53736000      21.66966000       8.80124000       0.01986190      -0.02551600       0.01923990
H        1.70906000      23.29571000       7.34484000       0.02568640       0.00841805       0.05435900
O       17.50344000       4.58776000       9.85544000       0.04746330      -0.02107370       0.00016345
H       16.24294000       3.58546000       8.98784000      -0.00579186      -0.00392963      -0.00650737
H       19.02494000       3.40609000       9.83184000      -0.03524740       0.03289430       0.00396288
O       15.23550000      18.00772000      18.07655000      -0.00941222       0.05163000      -0.00616271
H       16.02756000      17.04842000      19.30851000       0.02997030      -0.02104690       0.03389460
H       14.59775000      16.82442000      16.93791000      -0.02195080      -0.02905990      -0.02663560
O        5.32778000       6.18096000      11.24546000       0.04461720       0.02042250       0.03587440
H        7.13218000       6.48126000      12.32776000      -0.06248670      -0.02089080      -0.03281420
H        4.14838000       5.15416000      12.28526000       0.01722820       0.00476750      -0.01073200
O       10.59980000      24.43101600       9.70959000      -0.05848470       0.00994980      -0.07123450
H       10.74220000       0.33253700      11.40940000      -0.00356959       0.00892197       0.04238630
H        8.73298000       0.76972500       8.98669000       0.06930410      -0.01196400       0.03233930
O       13.01362000      21.10106000      22.53164000       0.00224598      -0.01269210      -0.02538930
H       13.30942000      20.04799000      20.98814000       0.00122867       0.01730260       0.02245240
H       13.98892000      20.30244000      23.86084000       0.00051490      -0.00813626       0.00510322
O       12.57220000      14.97940000      15.08627000      -0.03783610       0.00534247       0.02846690
H       10.91190000      15.20480000      16.10935000       0.03228460      -0.00876877      -0.02449650
H       12.37230000      13.39406000      14.17606000      -0.00021601       0.00491991      -0.00237799
O       22.66300000      17.95930000      11.75960000      -0.06834150       0.00046950       0.04818610
H       20.86030000      18.14240000      12.68420000       0.06989270      -0.00126247      -0.04114450
H       22.27840000      17.04550000      10.22130000      -0.00630101       0.00491416      -0.00486898
O       10.81820000      22.11080000      16.11034000      -0.01299040      -0.00887340       0.01543980
H        9.68125000      21.48790000      17.44138000       0.00144297      -0.00377210      -0.01401120
H       12.23440000      21.00250000      16.03316000       0.00339621      -0.00942340       0.00221857
O       22.39820000      22.90084000       5.61504000       0.01979960       0.21304700       0.08844770
H       20.80810000      22.93774000       6.24454000      -0.05698200      -0.00415606       0.02337110
H       22.68060000      21.55134000       4.91474000       0.03925360      -0.21301500      -0.10844100
O       16.53274000       7.92567000       2.15651000      -0.01257210       0.02273900      -0.02333680
H       16.01265000       9.30992000       1.01937000       0.02980580       0.00842462       0.00791556
H       14.84762000       7.28462000       2.24608000      -0.01068100      -0.02511640       0.01920790
O       16.18920000       0.67606000      13.90900000      -0.04051950      -0.05300020       0.03809470
H       17.26950000       1.94306000      13.45680000       0.02485760       0.05053310      -0.00971091
H       14.91020000       1.11266000      15.29690000       0.01164720       0.01693560      -0.03191680
O        0.53593200      16.45780000      15.97284000       0.05434990       0.00698388       0.07700890
H       24.26237000      15.01060000      16.65744000      -0.00424485      -0.03088170       0.05156450
H       24.08545500      16.24060000      14.58464000      -0.04814860       0.02471650      -0.11703400
O       15.57634000      18.19324000       2.22368000       0.06063280       0.09734240       0.00039604
H       16.23094000      19.29884000       3.72229000      -0.02587360      -0.03938670      -0.03425080
H       14.65524000      16.79884000       2.66557000      -0.03040240      -0.03930190       0.03113730
O       22.11100000      13.84510000      19.86892000      -0.02183120       0.12134400      -0.00315172
H       23.33260000      12.87310000      20.42932000       0.06618770      -0.08196620       0.03168580
H       20.72270000      13.34040000      18.97182000      -0.03621750      -0.05140630      -0.03026240
O        7.95416000      17.25044000       3.82030000       0.02768670       0.01492600       0.05576230
H        6.33166000      16.96654000       4.74254000       0.02483370       0.00925750      -0.01639310
H        9.24436000      17.71774000       5.28426000      -0.04752070      -0.01121160      -0.04295620
O       10.22570000      19.05752000       8.71404000       0.06328830      -0.01219760       0.04014040
H       11.35290000      17.89892000       9.86334000      -0.03471170       0.03073530      -0.03944480
H       11.08020000      20.74332000       8.99704000      -0.02768970      -0.02232200      -0.00586092
O        2.46978000      12.82494000       2.49318000      -0.05854390      -0.05074610       0.00600698
H        1.29002000      12.17604000       4.14935000       0.03087780       0.01637200      -0.05425090
H        1.74662000      11.80474000       0.90691300       0.02938860       0.03439290       0.05517990
O       17.54131000      10.53536000      11.89950000       0.00265054      -0.07239310       0.02782630
H       17.70560000       8.53766000      12.15040000      -0.00547234       0.07480310      -0.01619340
H       18.59678000      10.96636000      10.51670000       0.00927585      -0.00375520      -0.00949578
O       20.02471000       6.38033000      18.27450000       0.03305910      -0.06348580      -0.04554950
H       21.43168000       5.86816000      19.45730000      -0.01692120       0.01098110      -0.00509611
H       20.38490000       5.11046000      16.74610000      -0.01012200       0.04096740       0.04508160
O        1.77444000       9.60466000      22.32637000       0.13616800       0.06262980      -0.05280080
H        0.79764000       8.26756000      22.16655000      -0.07779840      -0.08828950      -0.00279728
H        3.31324000       8.97416000      21.06052000      -0.06106740       0.03638300       0.05560540
O       23.43020000       5.22255000      21.81424000       0.05248360       0.02563800      -0.09241920
H       22.73810000       4.80634000      23.33444000      -0.01301700      -0.02930460       0.05584020
H        0.70144000       4.65824000      21.21924000      -0.03068780      -0.00643191       0.02980130
O       15.41820000       1.95454000      23.48404000      -0.02859430       0.01880160       0.00202124
H       17.14500000       2.08354000      23.88134000       0.03135070      -0.01089360       0.01531470
H       14.75690000       0.27354000      23.41154000       0.00455212      -0.01122160      -0.00769767
O        8.50806000      11.10030000      21.11130000       0.01507220      -0.01748290       0.06715620
H       10.20246000      10.85920000      20.41330000      -0.00034206      -0.00245065       0.00873841
H        8.60256000      10.73140000      23.19220000      -0.01123420       0.01580530      -0.06409140
