192
Lattice="23.95001 0.0 0.0 0.0 23.95001 0.0 0.0 0.0 23.95001" Properties=species:S:1:pos:R:3:force:R:3 TotEnergy=-1103.44233 cutoff=-1.0 nneightol=1.2 pbc="T T T"
O       20.06480000       2.89006000      15.72652000       0.00261600      -0.00048970      -0.00574851
H       19.31890000       3.97892000      17.01792000       0.00612553      -0.02084370      -0.00110947
H       19.20740000       1.26293000      15.44462000      -0.00956686       0.01559070       0.01354470
O        0.65828000      22.72389000       9.47634000      -0.12059300       0.07396490       0.04493150
H        2.01108000      21.94119000       8.97999000       0.10203100      -0.07264020      -0.04953290
H       23.16749000      22.56939000       8.32502000       0.01593540      -0.00358626       0.00195072
O       10.43310000       0.60811700      14.91910000       0.07405690      -0.10497300      -0.01869640
H       10.60140000      22.48874000      15.40560000       0.00330503       0.07620120      -0.02342600
H        9.08865000       1.07305000      15.82680000      -0.07375740       0.02634470       0.03951520
O       18.81744000      14.17332000       0.05401000      -0.02191100       0.07027550      -0.03274140
H       19.72924000      15.35055000      22.74325000      -0.01263380      -0.03251770       0.02568730
H       17.41034000      15.53110000       0.32729100       0.02963900      -0.04619840       0.01096810
O        9.02514000       5.03619000      21.63430000       0.08742600       0.05984420       0.02577470
H       10.15960000       6.51049000      22.45880000      -0.06483040      -0.04558720      -0.01539410
H       10.63690000       4.65109000      20.66900000      -0.03682920      -0.02249760      -0.01599280
O       21.21342000      13.98440000       8.67455000       0.00382590      -0.01652910      -0.01363260
H       21.83899000      12.90730000       7.18635000      -0.01394630       0.03378420       0.02946690
H       22.41892000      15.27630000       9.24860000       0.00574759      -0.01401890      -0.01757720
O       14.45479000      22.67010000      11.16210000       0.01481380      -0.05043270      -0.00575943
H       15.95769000      23.38530000      10.32890000      -0.01607330      -0.01311650       0.00087414
H       14.46929000      20.68570000      10.86180000       0.00009483       0.06989880      -0.00905699
O        1.05653000       1.21201000      14.35830000      -0.02565500       0.00101589       0.04434020
H        0.92322200       0.24541000      12.81620000      -0.01755580      -0.00135442       0.00354170
H       23.48217600       1.25691000      15.57050000       0.02812120      -0.00178608      -0.05046660
O        6.34879000      13.37082000      18.21530000       0.00940939      -0.01872130       0.01444270
H        7.46989000      12.52462000      19.52330000      -0.01165470       0.01645750      -0.02725050
H        6.76529000      15.16862000      18.16750000       0.00075981      -0.00569678       0.00785802
O        7.60982000      19.65362000      23.62832000      -0.11017200       0.08334350      -0.00200084
H        8.86510000      18.60982000      23.64532000       0.11648800      -0.08614130       0.00639737
H        6.18906000      18.90502000       0.57271000      -0.00342457       0.00157653       0.00434751
O       11.81681000       1.84122000       4.94265000       0.00793503       0.06549410      -0.01791550
H       10.04751000       1.67135000       4.51264000      -0.00487220      -0.00523203       0.00097552
H       12.12511000       3.77525000       4.40768000      -0.00410151      -0.07289980       0.01027200
O       13.15071000       5.45159000       1.59558000      -0.02435240      -0.02092710      -0.03277110
H       13.77011000       4.29189000       0.27618000      -0.01277950       0.00104926       0.01209370
H       14.70089000       6.09899000       2.05708000       0.04604160       0.02652360       0.01995760
O       13.53980000      18.62782000       7.67661000      -0.03758610      -0.03761890       0.05407820
H       14.52860000      16.90582000       8.16191000      -0.03985490       0.04966650      -0.02659090
H       11.40820000      18.70192000       8.72131000       0.07307520       0.00004142      -0.02459110
O        1.61609000      16.36240000      10.34329000       0.03105150       0.02338680       0.00206519
H        3.13339000      17.39020000       9.92759000      -0.03231640      -0.01610390      -0.00069113
H        2.15629000      15.56240000      11.89819000      -0.00303635      -0.00735461      -0.00072605
O       23.76213800       2.24452000      22.45614000      -0.13599500      -0.03909430       0.08161000
H        1.17130000       2.61056000      21.62369000       0.11603700       0.01646020      -0.05819940
H       23.57314300       0.57335100      23.32129500       0.02054220       0.02386230      -0.02269550
O       21.02192000      23.51460000       5.05749000       0.08192950      -0.01360250      -0.04760880
H       22.40942000      22.99350000       3.64809000      -0.04114320       0.01975150       0.04884500
H       19.67222000      22.61350000       4.32669000      -0.03326130      -0.00517880       0.00391446
O       16.87222000       9.09684000      22.63860000       0.05649580       0.04423890       0.08932210
H       16.12542000       8.85308000      21.12160000      -0.03028330       0.01496430      -0.06664750
H       17.80552000      10.84380000      22.99200000      -0.03074620      -0.04537320      -0.02619090
O        3.86481000      12.10658000       6.37481000      -0.01915600       0.06381650       0.07880100
H        5.56131000      12.47738000       6.71631000       0.02376200      -0.00026352      -0.00370213
H        3.50461000      10.99148000       5.18871000      -0.00237145      -0.06298150      -0.07667760
O       17.03738000      22.33730000      15.58339000      -0.01740760       0.00711142      -0.02200880
H       15.67968000      22.55870000      14.27189000       0.01742730       0.00545263       0.01550560
H       17.79728000      20.79690000      14.94279000       0.00133191      -0.00217521       0.00650831
O        6.47168000       1.44751000       4.27751000       0.19751600      -0.16717600      -0.14306200
H        5.44428000       2.30711000       4.98978000      -0.19421600       0.16272900       0.13401500
H        6.12368000       1.35321000       2.46722000       0.00028241      -0.00140460       0.00478530
O        9.17789000      18.96780000      10.36931000       0.00306002       0.00928364       0.00226224
H        8.52479000      17.24650000      10.07851000       0.00379275      -0.01278190       0.01947250
H        9.46579000      19.40120000      12.17441000      -0.00339513      -0.01371820      -0.02249240
O       13.89111000       6.78588000      12.79638000       0.07435690       0.00816071       0.01300280
H       13.33831000       5.34863000      11.87058000      -0.01164740      -0.00721983      -0.00840165
H       16.11029000       6.53959000      12.70588000      -0.07230150       0.02131480      -0.00945374
O        6.27882000       0.43745500      23.00979500       0.05617120      -0.05259440      -0.00296748
H        7.27092000      22.55124000      23.17231300      -0.04498130       0.05057170       0.00058689
H        7.77398000       1.38451000      22.48107000      -0.01701530       0.00872341       0.00423243
O       20.51109000       5.84171000      20.38190000       0.01184160      -0.04626800       0.02311640
H       19.15949000       6.77712000      21.18820000       0.00991807      -0.00318359       0.01583000
H       21.34849000       4.44521000      21.61440000      -0.02204990       0.04856230      -0.03603810
O       20.94339000      11.35458000       3.95849000       0.14318000      -0.10912100       0.11201800
H       20.38350000      12.48378000       2.92379000      -0.04067770       0.10388900      -0.09852930
H       23.04845500      11.35888000       3.92979000      -0.09751790       0.00294651      -0.01424820
O        7.70267000      14.03419000      10.10710000       0.04690940       0.03407430      -0.08369300
H        6.52945000      13.98399000      11.36340000      -0.04168950      -0.02633010       0.05471420
H        9.07566000      12.81759000      10.03680000      -0.00476548      -0.00312472       0.02351210
O        6.94511000      18.29500000      18.69340000       0.00924537      -0.00300412      -0.02120070
H        5.35341000      19.17760000      18.61350000      -0.00319332       0.00927698      -0.00173854
H        7.67301000      18.75390000      20.26890000      -0.00407370       0.00409037       0.01937520
O        9.52539000       9.25099000       1.77278000      -0.00306695       0.08481310      -0.00257156
H       10.49149000       7.84309000       1.73518000       0.02558220      -0.06801750       0.00891292
H        7.76049000       9.15199000       1.95248000      -0.02728510      -0.02297070       0.00187379
O       13.83350000       9.53719000      17.61140000      -0.00682173      -0.06628980       0.05506100
H       14.03950000      11.03749000      16.80900000       0.00720562       0.05308660      -0.04359860
H       13.60300000       8.07909000      16.51410000      -0.00133924       0.01250080      -0.00799524
O       23.65030100      21.18432000       0.82479000       0.10364200       0.02682010       0.04136210
H       22.42279000      20.03322000       0.52089000      -0.04661820      -0.05080920      -0.01824550
H        1.35398000      20.19252000       1.48869000      -0.05695470       0.02377810      -0.02252180
O        2.20447000      13.00910000       0.87406300       0.01258660      -0.00882693       0.02494990
H        3.11750000      11.38590000       0.82731600      -0.00697126       0.00658969       0.00336522
H        2.19749000      13.59530000      23.13879500      -0.00659899       0.00635736      -0.02106480
O        5.25113000       2.91859000      15.88310000       0.02991090       0.03505550       0.05602220
H        3.45591000       3.16278000      15.67020000      -0.00327462      -0.00786378      -0.00222182
H        5.72434000       3.78461000      17.57630000      -0.01601920      -0.02447400      -0.05528060
O       12.45532000       3.68608000      18.49542000       0.02489770       0.05612400       0.04721900
H       12.32902000       2.42208000      17.34002000      -0.01244280      -0.04942430      -0.05403490
H       13.98972000       3.37568000      19.43502000      -0.00262200      -0.00486045       0.00103764
O        3.29206000       3.04628000       7.86711000      -0.03166180      -0.01597830      -0.02044300
H        4.24123000       3.86318000       9.14121000       0.01662260       0.00417580       0.02451430
H        2.14837000       1.76478000       8.56681000       0.01226860       0.00928666       0.00158161
O       13.97572000      12.06869000       2.57881000       0.03531530      -0.02949470      -0.03135580
H       14.72572000      10.78109000       1.29292000      -0.02266060       0.03745810       0.03771850
H       12.21342000      11.72519000       2.63313000      -0.01207520      -0.00792225      -0.00311726
O       21.83850000      10.29029000      12.10570000       0.01989850       0.02303550      -0.03147590
H       23.44350000       9.66899000      11.39180000      -0.01208150       0.00514142       0.00857051
H       21.55860000      11.91989000      10.98350000      -0.00170573      -0.03685310       0.02084570
O       11.34421000       3.27261000       9.83627000       0.01289700       0.01554650       0.16975600
H       11.43031000       2.73731000       8.32720000       0.00441589      -0.04107340      -0.17928500
H       12.13941000       1.72171000      10.54750000      -0.01704550       0.02153240       0.01212790
O        4.17692000       6.13048000      20.82660000      -0.08654710       0.04678610      -0.03395140
H        3.48612000       7.36023000      19.38090000       0.03384470      -0.04619330       0.05174220
H        5.82772000       5.51444000      20.81880000       0.04692460       0.00440975      -0.00916262
O        3.61751000       8.86621000      10.55149000      -0.03928300       0.02138400       0.00975399
H        4.71341000       7.49471000      10.77569000       0.02856950      -0.02995260       0.00921551
H        3.90731000       9.51591000       8.91579000      -0.00105083       0.01253250      -0.01837620
O       15.67440000      14.23500000       7.20639000       0.04997670       0.00518533       0.04790440
H       17.56820000      14.14360000       7.47929000      -0.03816950      -0.00323796      -0.01022880
H       15.23100000      13.48870000       5.66219000      -0.00130428      -0.01409920      -0.03558130
O        2.94001000      21.70003000      18.41429000      -0.01078650      -0.01600410      -0.03526350
H        3.40151000      23.03753100      19.44979000       0.01294720       0.02238990       0.03630000
H        2.69691000      22.62661000      16.84299000       0.00088856      -0.00616876      -0.00323593
O       18.16199000       2.76891000       7.97039000      -0.05627610       0.01525890       0.03081260
H       18.22419000       3.59889000       9.61489000       0.00579701       0.00382181      -0.01651080
H       19.76459000       2.32070000       7.51589000       0.05112660      -0.02101160      -0.01010780
O       13.93021000      14.63212000      14.91575000       0.04471810       0.04149190       0.02559090
H       15.47236000      15.56332000      14.36039000      -0.01406660      -0.01690960       0.01839900
H       13.26161000      14.13722000      13.38151000      -0.02617370      -0.02495310      -0.04059410
O        6.61618000       5.01261000      11.22581000      -0.05840120      -0.01196840       0.06084720
H        8.27978000       4.88981000      10.63081000       0.03346150      -0.01576720       0.00414845
H        6.24368000       4.24041000      13.07551000       0.02706080       0.01937680      -0.05574360
O       15.99620000      22.28127000       4.49022000      -0.06869570       0.04037060      -0.01956160
H       14.61030000      23.65333700       3.62732000       0.05362050      -0.05561560       0.04771820
H       14.99040000      21.42810000       5.87924000       0.01453960       0.01472420      -0.02356060
O       11.85812000      17.53200000      22.23969000       0.03494330       0.02623630       0.03142350
H       11.76312000      15.91041000      21.67869000      -0.02441810      -0.06529050      -0.04155810
H       13.28942000      17.07188000      23.37719000      -0.01071590       0.03213880       0.00997949
O        4.21236000      12.78641000      13.40231000      -0.01363720       0.03956070      -0.00437719
H        5.19499000      12.70631000      14.91581000       0.00217759      -0.01806270       0.00949679
H        3.76267000      11.29121000      12.43871000       0.01318730      -0.01489120       0.00905193
O       18.69150000      17.64510000      14.07740000      -0.01618940      -0.00974304      -0.08093490
H       19.14400000      17.32930000      12.18490000      -0.00873511       0.01069380       0.06551740
H       20.22820000      17.73660000      14.99130000       0.03088860      -0.00490556       0.01095470
O       11.31660000      19.58170000      15.94383000      -0.00915638      -0.00104838       0.00424767
H       12.59720000      18.30250000      15.48339000      -0.02317410       0.00381248       0.01876550
H       10.03960000      19.11960000      17.26696000       0.02158150      -0.01018530      -0.02651730
O        0.62609000       6.35128000       5.10419000       0.06149490       0.01381530       0.04543240
H       23.14930000       5.56718000       4.58729000      -0.05808190      -0.02582690      -0.03199800
H        1.30639000       5.14658000       6.41649000       0.00251554       0.01830740      -0.01923470
O       18.99457000       5.45020000       3.12931000      -0.00199654      -0.01929380      -0.00835209
H       18.95469000       4.15263000       4.37241000      -0.01256600      -0.03232230      -0.00537737
H       19.35157000       6.63133000       4.37526000       0.00627021       0.05406820       0.01102370
O       15.30990000      21.02952000      20.45360000      -0.03154280       0.01269480      -0.02267650
H       13.97300000      19.80982000      20.97950000       0.01456460       0.01507300      -0.00746835
H       14.64450000      21.88512000      18.87140000       0.02237690      -0.02709310       0.03120430
O       19.82138000      18.46140000      21.17949000      -0.06283290       0.04475580       0.04446320
H       20.62576000      18.39100000      19.65069000       0.03008300      -0.00341601      -0.05002820
H       18.34863000      19.77960000      20.92109000       0.03490390      -0.04238310       0.00476445
O       15.24269000      17.94339000       2.09762000      -0.02144840       0.00215647       0.05190490
H       16.05379000      19.57169000       2.68948000      -0.01702770      -0.01714560      -0.00902720
H       14.06989000      17.57959000       3.65666000       0.03971170       0.00985959      -0.04655480
O       23.24170000      17.74680000      16.73922000       0.03732830      -0.01947330       0.03181740
H       23.94170000      15.97240000      17.49072000      -0.01869060       0.06266370      -0.01439800
H        0.36489000      19.20740000      17.41432000      -0.02286610      -0.04344030      -0.01144010
O        3.73061000      18.04379000       2.70775000      -0.00959082      -0.01192480      -0.03020320
H        3.44641000      16.21189000       2.78345000      -0.00148574       0.00995420       0.00136389
H        4.28661000      18.72129000       4.26418000       0.00782607       0.00292026       0.02724300
O        5.25831000      20.54472000       7.20449000       0.01195750      -0.02045660       0.02559290
H        6.58475000      19.94512000       8.43809000      -0.01900510       0.01972280      -0.02398660
H        5.68416000      22.25342000       6.78279000       0.00721314       0.00716209      -0.00626022
O        4.18461000       8.31489000       1.63733000      -0.02020250      -0.05048760      -0.04780170
H        3.85465000       7.06069000      23.76666600       0.01383450       0.04919970       0.06005230
H        3.04174000       7.60429000       2.95976000       0.00907585       0.00042014      -0.02039130
O       12.01991000      11.56481000      10.84480000       0.01267090      -0.01130160      -0.01171120
H       12.55181000       9.82641000      11.40290000      -0.00071907       0.01718370      -0.00866649
H       12.94701000      12.02071000       9.30015000      -0.00030033      -0.01046410       0.01903280
O       18.71412000       6.43484000      11.83270000       0.00880344       0.06028560      -0.04752030
H       20.06298000       7.92229000      11.82090000      -0.03494740      -0.01016610      -0.00927183
H       19.33595000       5.61008000      13.18410000       0.02882830      -0.05545470       0.06460520
O        1.20899000      13.72571000      19.68341000       0.04462220       0.06439090      -0.00929240
H        2.83919000      13.45481000      18.81706000       0.00350344       0.01520920       0.00997283
H        0.66889000      12.12601000      19.46774000      -0.04262020      -0.07490970      -0.00888612
O       23.90080000       8.96889000      17.68949000       0.00285318       0.00463686       0.03726290
H       22.27150000       8.74388000      18.53269000       0.01453850      -0.01171050      -0.00803471
H       23.65640000       8.79152000      15.95269000      -0.00863261       0.00226597      -0.02746100
O       15.88680000       2.15939000      22.02799000      -0.05467900       0.07145610       0.02471890
H       17.31490000       2.91169000      21.42619000       0.05407360       0.02087890      -0.01519120
H       16.01190000       0.47589000      21.94539000       0.00669756      -0.09052020      -0.00596989
O       10.28141000      11.53660000      21.15340000       0.07522030      -0.00216775      -0.10695700
H       11.82101000      10.42920000      20.10200000      -0.06117340       0.04766910       0.02396370
H       10.14521000      10.57500000      22.55110000      -0.01455600      -0.03561630       0.07284360
