192
Lattice="24.34225 0.0 0.0 0.0 24.34225 0.0 0.0 0.0 24.34225" Properties=species:S:1:pos:R:3:force:R:3 TotEnergy=-1103.36872 cutoff=-1.0 nneightol=1.2 pbc="T T T"
O        0.68845000      22.38217000      15.04900000      -0.00032366      -0.04767840      -0.05190170
H       23.22620000      22.66531000      14.79750000       0.01392320      -0.00248962      -0.00112420
H        1.12525000      20.95433000      13.68830000      -0.01192920       0.04409640       0.05074040
O        2.59050000      23.98195000      24.02661100      -0.04465650       0.04187550      -0.01317270
H        1.28100000       0.95290000      23.46727100       0.02341680      -0.02959600       0.02844390
H        3.26700000      23.68535000      22.39411000       0.01913990      -0.01088440      -0.01713970
O       13.77910000       0.89620600      17.48680000       0.01024430      -0.02677830      -0.01001500
H       14.03500000       1.85003000      18.97580000      -0.00242970       0.02309280       0.00628381
H       14.56440000      23.61834200      17.91510000      -0.00461512      -0.00248526      -0.00846863
O       21.57797000      12.01835000      22.56115000       0.00561290      -0.01152490      -0.04134310
H       22.34565000      11.20655000      21.00123000      -0.00745008       0.02257740       0.03569430
H       21.73793000      13.89035000      22.45108000       0.00775062      -0.01240890      -0.00393773
O        6.34032000      11.67255000      16.66840000      -0.02571460       0.09009960      -0.13507800
H        6.56719000      11.54345000      18.25430000       0.00952867      -0.01069800       0.17705200
H        6.51435000      10.07265000      16.18090000       0.00720508      -0.09232110      -0.03710640
O       17.66393000      11.02190000       6.56316000      -0.04271090      -0.03213820      -0.06919570
H       16.91587000      12.72170000       6.20147000       0.01269900      -0.00168391       0.01546680
H       16.83492000      10.11630000       4.92725000       0.03286890       0.02507330       0.05399580
O       19.40165000       3.97245000      13.14720000      -0.02703680       0.03733370       0.00727766
H       21.21345000       4.16055000      13.14930000      -0.00414315      -0.03396330      -0.00910480
H       18.42025000       2.42045000      13.00750000       0.03257780      -0.00682079       0.00056929
O        2.80106000      13.39600000       9.23933000       0.03524280      -0.02422040       0.02265550
H        4.26854000      12.05990000       9.44063000      -0.04589560       0.05668600      -0.00318271
H        2.99166000      14.90310000      10.39740000       0.00277549      -0.02892380      -0.00816980
O       10.40605000      14.51500000      16.48320000      -0.19519400       0.03242780      -0.04990280
H        9.15725000      13.03240000      16.82890000       0.01779440       0.04298500      -0.02159910
H       11.72925000      13.93230000      17.10760000       0.18376400      -0.06906870       0.07528130
O       10.08840000      20.40530000      24.23710000       0.04279460       0.00140084       0.02487940
H       12.09120000      20.53200000      23.95150000      -0.04931640      -0.01270590       0.02260930
H        9.62628000      19.40450000       1.49105000       0.02080170       0.01283720      -0.03966890
O       11.35455000       5.01211000       6.70569000       0.02374080       0.03052780       0.00349692
H       12.79385000       6.18837000       6.26755000      -0.03632250      -0.02479870       0.01003590
H       10.43095000       5.77672000       8.11328000       0.01213960      -0.00246936      -0.01050760
O       14.23985000       4.29325000       1.05400000       0.03455470      -0.00023588      -0.02103340
H       12.96555000       3.12035000       1.53100000      -0.02774090      -0.00836347       0.00662789
H       15.61557000       3.08445000       0.53500000      -0.00332073       0.01773940       0.00943517
O       11.90200000      18.03510000       7.60765000      -0.07134500      -0.06179400       0.04431890
H       10.46600000      17.34090000       6.46675000       0.04539400       0.02272000       0.01301580
H       11.22040000      17.00880000       9.29425000       0.02571410       0.04383900      -0.04903270
O        0.83235000      14.58550000      17.10515000       0.10543400      -0.03740720       0.03897580
H       23.76050000      13.95730000      16.36645000      -0.05696430      -0.02345920      -0.03609180
H        1.97255000      12.92040000      17.33115000      -0.04224850       0.06488300      -0.00925105
O        3.92067000       1.99931000       3.97095000       0.01869810      -0.03897610      -0.00613359
H        5.11090000       0.94214300       5.03118000      -0.03071320       0.02627790      -0.01576550
H        3.63624000       0.95230800       2.39528000       0.00700936       0.01913840       0.02103100
O       15.35580000       1.64795000       8.16875000      -0.03234740      -0.09092900      -0.00092510
H       16.94920000       1.31425000       7.51535000       0.04014700      -0.00262605      -0.02373120
H       15.13960000       3.22795000       8.64545000      -0.00288630       0.10323700       0.02254720
O       16.18780000      11.02700000      22.10160000       0.08598650       0.01136280      -0.04775080
H       15.62710000      10.85160000      20.37540000      -0.02468750      -0.00246757       0.00433903
H       18.15600000      11.17830000      21.52860000      -0.06052920      -0.00010876       0.04695780
O        3.15135000      14.70300000       4.35005000      -0.03758840       0.04347650       0.08372320
H        2.38025000      14.43780000       6.22845000       0.03214070       0.01329540      -0.05589230
H        3.35925000      13.00870000       3.98225000       0.00888158      -0.04334810      -0.03046740
O       20.14180000      20.35470000      12.87225000       0.02105550      -0.02403500       0.02276490
H       18.45140000      20.86270000      12.70535000      -0.02851640       0.02349230      -0.00605009
H       20.04630000      19.50180000      14.56595000       0.00772354       0.00553429      -0.02568700
O       10.00980000      11.65465000       3.08569000       0.04663470      -0.00818983      -0.08127030
H        9.41850000      11.16875000       1.22951000       0.01733180       0.01206390       0.06922240
H       12.02530000      11.57145000       2.80336000      -0.06722970      -0.01203290       0.01146970
O        2.64035000      17.41990000      12.91525000       0.03199310      -0.00755055       0.02930030
H        4.46945000      17.99850000      12.68285000      -0.05280000      -0.01318620       0.02006770
H        2.31135000      16.64600000      14.73828000       0.01404490       0.01617000      -0.05043350
O        8.22665000       6.03997000      15.77850000       0.02154490       0.03168140      -0.06163790
H       10.00345000       6.29546000      15.14540000      -0.03511070      -0.01023880       0.02825690
H        7.95135000       5.22290000      17.30940000       0.01326720      -0.01628560       0.02936710
O       10.28070000       1.16831000       1.71565000       0.00770451      -0.10140300      -0.02362490
H       10.97850000       0.41445000       3.23696000      -0.00546770       0.02076430       0.01819480
H       10.23530000      23.39945400       1.05014000      -0.01223520       0.07653480      -0.00184248
O       19.33405000       0.30676800       4.82235000      -0.01427200       0.05837810       0.01018120
H       20.74295000       1.51753000       4.76425000      -0.00473976      -0.01266120       0.00626439
H       19.86505000      22.99609000       5.12565000       0.02458560      -0.04087570      -0.00249324
O       21.80248000      12.52620000       9.36615000       0.02270610       0.03681980       0.02699760
H       21.00205000      11.18260000       8.51075000       0.00052423      -0.01758280      -0.01562400
H       23.58551900      12.34580000       9.92705000      -0.01936330      -0.01244560      -0.02063870
O        9.52434000      15.50605000      11.62460000       0.00744466       0.02887120      -0.12210300
H        9.22218000      13.86345000      11.07670000      -0.01131740      -0.02988420      -0.00037782
H        9.47875000      15.83615000      13.24810000       0.00199117       0.00219726       0.11287700
O       10.26145000      19.02180000      19.13520000      -0.00296219      -0.03527040      -0.10745800
H        9.82905000      17.21820000      18.78530000       0.00680902       0.02747200       0.01146730
H       10.30855000      19.55300000      20.73790000      -0.01049810       0.01032130       0.09027410
O        3.78075000      10.10345000       1.92590000       0.00113942       0.07484120      -0.02462360
H        4.87385000       8.94465000       2.55590000       0.05075810      -0.04953850       0.02958820
H        2.28095000       9.28925000       1.63750000      -0.05634730      -0.02838650      -0.00560197
O        8.10978000       4.79835000      21.72110000      -0.07817610       0.00801034       0.05367300
H        9.75689000       4.55455000      21.41460000       0.07998110      -0.00757966      -0.03465260
H        8.22362000       4.70985000      23.58930000      -0.01608810      -0.00032882      -0.01883810
O        3.90174000      24.02580000      18.70990000      -0.00201352       0.02409970       0.06352440
H        2.84213000      23.56060000      17.40770000      -0.02196590      -0.02261850      -0.04420180
H        5.61133000      24.09340000      18.27930000       0.02456070      -0.00030629      -0.01750950
O        1.30191000      19.05140000       1.73709000      -0.00970759      -0.12118300       0.06808580
H        2.27238000      17.57520000       3.16070000      -0.04122960       0.04988860      -0.06706730
H        2.39449000      20.33120000       1.53123000       0.04963020       0.06121360      -0.01022450
O        0.59573700       2.78556000      12.91410000       0.01633560      -0.01989850       0.00103582
H        0.98400900       4.22164000      11.78450000       0.00239696      -0.01737130       0.00021139
H        1.64116000       1.21505000      12.63820000      -0.02403790       0.04034540       0.00099956
O       12.89670000       5.04010000      20.15700000      -0.01989890      -0.00294585      -0.08350430
H       13.27140000       6.62980000      19.33240000       0.00596118      -0.00284067       0.02734380
H       13.17500000       4.64490000      21.81020000       0.02752890       0.01694730       0.06680910
O        7.05950000       6.36010000       3.30355000       0.03488550      -0.01039300       0.03256190
H        8.09665000       5.49390000       4.64405000      -0.00269844       0.02802440      -0.02934620
H        5.79087000       5.11540000       3.30745000      -0.03156090      -0.02422990      -0.00930451
O        8.83170000      16.48805000       3.65560000       0.08873570       0.06869440      -0.04374210
H        9.39690000      14.90595000       3.17613000      -0.00593362      -0.05723330      -0.00079212
H        7.45330000      16.81405000       4.52451000      -0.09625960      -0.00798568       0.04532180
O       14.28740000      10.31505000      17.20380000       0.00710962      -0.03773290      -0.04954790
H       16.03090000       9.56685000      16.86970000      -0.03356720       0.01415020       0.00312277
H       13.25020000       9.66485000      15.60940000       0.03017830       0.01942650       0.03839150
O        8.38495000      11.21615000       8.52009000      -0.01087680      -0.02149350       0.04558770
H        8.38725000      11.26435000       6.78836000       0.00913109       0.02182830      -0.06238690
H        7.94895000       9.44105000       8.61884000       0.00006341      -0.00314136       0.01921700
O        0.66030000       4.17591000      18.16340000       0.02365260       0.00115807       0.06550990
H        1.99170000       3.08462000      18.85890000       0.00069050       0.01564330       0.01250250
H        0.60880000       3.26128000      16.72140000      -0.01859620      -0.02650030      -0.08409590
O        1.03855000       6.64245000       9.46055000       0.07806410       0.03568620       0.07143780
H        3.01945000       6.59625000       9.67405000      -0.06145090      -0.00185718      -0.01820330
H        0.54645000       5.73455000       8.07575000      -0.01223580      -0.03132400      -0.05562190
O       16.88830000      16.37270000       1.03905000      -0.00271285      -0.00322370      -0.01652200
H       17.32450000      16.75780000       2.86335000      -0.02908150      -0.02601510      -0.02806040
H       15.58210000      15.09520000       0.46155000       0.03702510       0.02588400       0.03717850
O        6.53165000       0.99958100       8.31795000      -0.01032700      -0.03243030       0.04613040
H        8.08735000       0.60982500       7.48055000       0.02043630      -0.00379487      -0.00920040
H        6.54085000      23.93792900       9.70325000      -0.00881653       0.03345510      -0.03266680
O       16.22495000       7.46176000      10.10275000      -0.04263930      -0.02406940       0.01719460
H       17.30175000       6.35956000      11.02285000       0.02497200      -0.00226433       0.00360636
H       16.96435000       8.65030000       9.00595000       0.01991470       0.02187970      -0.01792820
O       19.52736000      17.54990000      17.04481000      -0.07947040      -0.00349111      -0.05869820
H       20.76167000      17.74370000      18.18746000       0.06724490      -0.00489579       0.05874780
H       19.58357000      16.01910000      15.97040000       0.01294930       0.00240708       0.00913435
O        6.72970000       5.95175000       9.82535000       0.02050050      -0.00311473       0.05914090
H        7.25890000       5.65765000      11.68715000      -0.01758360       0.01423760      -0.04744410
H        6.82490000       4.22395000       9.19695000      -0.00891648      -0.00986992      -0.00611386
O        8.97157000      23.49748400      16.25370000      -0.06784600      -0.05400510      -0.01398310
H       10.20020000       0.35562900      16.44260000       0.05165190       0.02730550       0.01611180
H        9.16997000      21.94309000      17.27380000       0.01389230       0.01835390      -0.00735546
O       15.38150000      20.72661000      23.61585000      -0.02153770       0.02755460      -0.03586060
H       15.62030000      20.62439000      21.76635000      -0.00494523       0.00727820       0.00402556
H       16.05600000      19.14598000      24.13285000       0.01228330      -0.02870680       0.02464110
O       12.12480000       8.73005000      12.64805000      -0.02042140       0.01855580       0.00736183
H       11.25240000      10.32805000      12.03885000       0.03603960      -0.04573700       0.00181713
H       13.68700000       8.08015000      11.74445000      -0.01653480       0.02795280      -0.00644429
O       20.19850000      17.71280000       8.48844000       0.03900210      -0.02518390       0.03571770
H       20.20400000      18.80460000      10.16770000       0.00786272      -0.03164260      -0.02971160
H       21.18390000      15.99910000       8.74903000      -0.03130430       0.04883720       0.00070290
O       15.29200000      20.22930000      18.17751000       0.04320910      -0.04542230       0.00191634
H       13.53830000      19.52220000      18.20768000       0.02797940      -0.00178207      -0.00248274
H       17.01190000      18.78480000      17.88747000      -0.06496440       0.04543940       0.00242416
O       21.01120000      19.88365000       4.11115000      -0.05382940      -0.02877460       0.12373600
H       21.52540000      18.88595000       6.10195000      -0.02722480       0.03607230      -0.07633080
H       22.26520000      19.83795000       2.96415000       0.06848560      -0.00662879      -0.04201370
O       14.58254000       9.43503000       2.02359000      -0.01553390      -0.06075330       0.07202070
H       15.28337000       9.66228000       0.50492900       0.04097790       0.05332530      -0.09086090
H       14.84018000       7.57177000       1.67294000      -0.02617750       0.00612129       0.03271790
O       16.22510000      23.68310000      12.64320000      -0.02035390       0.02931280       0.01141350
H       15.36660000       0.24435000      11.27010000       0.01044340      -0.01477420      -0.00485988
H       15.39230000       0.09515000      14.11490000       0.00635058      -0.01415500      -0.00138600
O       20.89035000      13.41970000      14.08025000      -0.04335770      -0.06373830       0.01462460
H       20.16684000      11.78200000      15.10665000       0.02643390       0.05997510      -0.05360060
H       20.66448000      13.03380000      12.11265000       0.01085320       0.00423371       0.04770510
O       22.00425000      17.05175000      22.25582000      -0.07836970      -0.02488000      -0.02337580
H       23.37295000      17.85085000      22.97621000       0.03317440       0.02452270       0.03452510
H       20.36415000      17.27405000      23.18848000       0.03897530       0.00373561      -0.00603433
O        0.29665000       8.98178000      19.00150000       0.03200910       0.01562010       0.01806630
H        1.83015000       9.34616000      20.07990000      -0.03075550      -0.01183430      -0.02585990
H        0.62685000       7.34004000      18.18410000      -0.00108327       0.00717759       0.01329080
O       11.00375000      24.01865000       6.48543000      -0.02116820       0.10922500      -0.02483800
H       12.14155000       1.16950000       6.94081000      -0.01503660      -0.04567650      -0.00646051
H       11.55225000      22.50905000       6.98415000       0.04154650      -0.07856460       0.03291470
O        6.25956000      21.53330000      12.15685000       0.03041360       0.07369950       0.05212490
H        7.30684000      20.15790000      11.85785000       0.02638600      -0.02735110      -0.01237440
H        7.48786000      22.65760000      13.52755000      -0.04374090      -0.04146660      -0.03643170
O       23.33554000       4.18985000       4.96382000      -0.03692210       0.03927490      -0.02421870
H        0.37252600       3.03885000       4.69378000       0.01112310       0.00853858      -0.01797340
H       22.89197000       5.51275000       3.52447000       0.03060250      -0.04680690       0.04268530
O       16.19714000      15.80239000       6.18383000      -0.00992109      -0.00631841       0.02031740
H       14.55781000      15.96108000       7.15744000       0.03023850       0.01457180      -0.02223260
H       17.61055000      16.57203000       7.17327000      -0.01904270      -0.00323063      -0.00485437
O       19.36817000       8.32990000      16.67040000      -0.07318930      -0.06750180      -0.07804690
H       20.47455000       9.02011000      17.71440000       0.07555440       0.02007610       0.06458420
H       19.68434000       6.49159000      16.16910000      -0.00344300       0.04690600       0.01441420
O       23.03430000       8.17095000       1.00711000       0.04825030       0.16422400       0.15694900
H       22.76150000       7.01415000      24.32119200      -0.04163970      -0.14299200      -0.14812200
H       22.58200000       9.92935000       0.50396100      -0.00443763      -0.02975870      -0.00708759
O       22.53590000       3.41947000      23.12465000      -0.04834760      -0.02943170       0.07880330
H       21.09730000       2.15895000      23.53035000       0.03301880       0.03365540      -0.01451570
H       23.02860000       3.18394000      21.50405000       0.01130340      -0.00630313      -0.06945060
O       17.82990000       0.82165000       0.25170000      -0.07390370      -0.03800800      -0.07873430
H       18.21020000       0.52765000       1.90980000       0.02503940      -0.00603105       0.07205060
H       16.41440000      23.65830000       0.07410000       0.05627850       0.04064110      -0.00622434
O        5.89585000       9.77607000      21.40550000      -0.05517990       0.09531640       0.03784410
H        6.20885000       8.11294000      21.54020000       0.02289720      -0.08237990       0.00572718
H        4.81785000      10.20830000      23.01840000       0.03594170      -0.01049290      -0.03771520
