192
TotEnergy=-1102.01487000 cutoff=-1.00000000 nneightol=1.20000000 pbc="T T T" Lattice="25.77254000       0.00000000       0.00000000      -0.00000100      25.77254000       0.00000000      -0.00000100      -0.00000100      25.77254000" Properties=species:S:1:pos:R:3:force:R:3:Z:I:1
O              24.05560000     17.26110000     10.15170000     -0.02253460      0.00239629     -0.01341400       8
H              -1.50869000     18.25580000      8.59026000     -0.00557031     -0.01430990      0.02158100       1
H              22.51870000     16.21140000      9.94651000      0.02326200      0.01728830     -0.00755873       1
O              13.19130000     -0.60331900     18.86830000      0.00287346      0.04481020      0.06237250       8
H              13.72380000      1.22919000     19.03650000     -0.00544804     -0.04073350     -0.01798050       1
H              12.84450000     24.96860000     20.76440000      0.00446049     -0.00840863     -0.03888280       1
O              18.74520000     19.42210000     19.30660000     -0.05222130      0.03963320      0.02625770       8
H              18.93660000     20.26100000     17.64930000     -0.00848634     -0.00485060      0.02679610       1
H              17.08500000     20.18620000     20.18300000      0.06611740     -0.02841420     -0.04431520       1
O               2.35915000     20.36220000     13.26970000     -0.00517400     -0.03632970      0.03407730       8
H               1.55910000     18.62080000     13.39040000      0.01410560      0.04867910      0.00055868       1
H               2.69807000     20.86680000     15.06100000     -0.00856836     -0.01325550     -0.03390120       1
O              24.63040000     10.48260000      9.29427000     -0.09595090     -0.16128900     -0.19909100       8
H              25.57210000      8.99785000      9.97448000     -0.03424680     -0.02807990     -0.04001330       1
H              -0.41400700     11.05500000     10.48860000      0.12276700      0.18527100      0.23590600       1
O               5.61173000     21.72830000     20.03820000     -0.06939780      0.04176840      0.03147540       8
H               5.50797000     23.25050000     18.88220000     -0.00228455     -0.02777160      0.02777670       1
H               4.02011000     21.97390000     21.36340000      0.06759890     -0.00514335     -0.06464940       1
O               7.27651000     15.83460000      8.42599000     -0.17813000      0.08756280      0.10481600       8
H               7.50463000     17.32710000      9.61909000      0.00924209     -0.03319420     -0.02742610       1
H               6.32252000     14.48060000      9.43798000      0.01032810      0.01974390     -0.00488697       1
O              12.45090000     24.20890000     24.14380000     -0.04856060     -0.01156630      0.01616270       8
H              13.01280000     -0.28189300     25.31040000     -0.00265597     -0.00369867     -0.00532970       1
H              10.62490000     23.72860000     24.64210000      0.05180500      0.00981250     -0.01115870       1
O              -0.09337600      2.05559000     16.25270000     -0.01857310      0.00164273      0.00241390       8
H               1.32369000      3.04838000     17.00660000     -0.00442436     -0.04242180     -0.03302230       1
H              -0.16356600      0.37150300     15.34070000      0.02705500      0.04574060      0.03221750       1
O               0.11856600     24.34130000     22.25450000     -0.03584060     -0.05295200      0.06213130       8
H              25.13900000     22.54440000     23.19730000      0.01243770      0.08014450     -0.04592370       1
H              -1.25701000     -0.16722600     22.15240000      0.00877642     -0.02361830     -0.00648159       1
O              20.63880000     22.37920000     10.25170000      0.02144710     -0.04673540      0.00727386       8
H              21.38070000     22.41000000      8.52482000      0.00318116      0.00653189      0.02893160       1
H              21.65310000     21.02250000     11.20900000     -0.01894070      0.03871080     -0.03440960       1
O               7.90360000     11.60210000      4.31982000      0.08257930     -0.05392390      0.01492770       8
H              10.27530000     10.20850000      4.47602000     -0.10229000      0.05898050     -0.00631238       1
H               8.54047000     15.02330000      7.86807000      0.15997100     -0.09058690     -0.07728690       1
O              22.86790000     19.56570000     23.97830000      0.12239600      0.00180865      0.01523160       8
H              22.47820000     19.51310000     22.24380000     -0.01403300     -0.00255511     -0.03146990       1
H              25.07900000     19.36780000     23.83810000     -0.10695200     -0.00188193      0.01204620       1
O               4.90320000      4.78760000     17.29110000      0.04078730      0.05595290      0.05068060       8
H               6.02808000      6.16698000     16.48820000     -0.02424980     -0.02805660      0.00507846       1
H               5.51986000      5.40614000     19.08240000     -0.03784640     -0.03048040     -0.04624600       1
O              -0.76575400      4.89479000     10.50800000     -0.01435070     -0.05097890      0.01706990       8
H               0.35304500      3.49621000     11.08370000      0.00439851      0.02388930     -0.01067350       1
H              23.44790000      3.88070000     10.81960000      0.01527010      0.02431880     -0.01081500       1
O               9.04132000      5.85406000     -0.02475200      0.00763322      0.01979600      0.07897520       8
H               8.82815000      4.83677000      1.61122000     -0.00253069      0.01506110     -0.04806240       1
H               9.45586000      7.47302000      0.96137300     -0.00962561     -0.03044480     -0.03183130       1
O              15.66790000     18.95030000     11.15430000      0.02778080      0.05552740      0.00280610       8
H              15.21610000     20.38660000     10.00390000      0.00725938     -0.02933350      0.01664180       1
H              17.55980000     19.28000000     11.55320000     -0.05604220     -0.00848236     -0.00948697       1
O              12.17130000      3.56908000      8.66078000     -0.00787987      0.01691760     -0.00891273       8
H              11.70240000      1.75409000      8.64256000     -0.00692245      0.04430640      0.00289804       1
H              10.81020000      4.96694000      8.86909000      0.02116320     -0.06328710      0.00504483       1
O              20.56620000     20.50550000      3.78377000     -0.02680670     -0.04696140      0.01807080       8
H              20.30480000     19.22390000      5.18019000      0.01084210      0.02970580     -0.02618680       1
H              19.55180000     19.62160000      2.50051000      0.01837120      0.01334670      0.00729504       1
O              11.42010000     15.15520000     20.49890000     -0.00479281      0.00882749     -0.04496980       8
H              13.03360000     15.08950000     19.72100000      0.03785220     -0.01119770      0.01941630       1
H              10.82290000     15.50660000     18.74480000     -0.02966640      0.00814641      0.03233060       1
O               8.26617000     18.26400000     16.61820000     -0.01130380      0.07259710      0.00904737       8
H               9.80620000     19.45420000     16.35290000     -0.01794730     -0.03307290      0.00541315       1
H               7.02610000     19.58280000     17.41120000      0.03444330     -0.04856000     -0.01692890       1
O              12.26490000      9.42580000     13.15060000      0.03362070      0.01161570     -0.04430610       8
H              12.49820000      8.68526000     11.45070000     -0.02281380     -0.00815065      0.02421760       1
H              13.73340000     10.53660000     12.90260000     -0.01182860     -0.00617656      0.02615820       1
O               5.34458000      2.66273000      2.97412000     -0.01672400      0.00114183      0.11065400       8
H               6.56890000      1.42022000      3.85290000     -0.03143840      0.02747190     -0.01875340       1
H               4.33882000      3.46169000      4.86268000      0.04846280     -0.03039080     -0.08819410       1
O               8.22564000      6.16775000     10.56700000     -0.06940800      0.04379210      0.03737330       8
H               6.94211000      7.07676000      9.46757000      0.02436310     -0.02126930      0.00892909       1
H               7.35805000      6.50727000     12.31590000      0.03978530     -0.01806280     -0.05470430       1
O              20.07220000      8.61551000      4.48783000     -0.07839880      0.01775080     -0.04801090       8
H              18.10150000      8.53690000      4.36117000      0.05189440     -0.00611802      0.02522520       1
H              20.01020000      9.48040000      2.82067000      0.02288020     -0.00695969      0.01949540       1
O               8.26388000     22.03030000     11.39140000      0.20891300     -0.25117800     -0.10488200       8
H               7.46186000     23.23430000     11.77400000     -0.19161200      0.23715800      0.09562910       1
H               7.68306000     20.34040000     11.53800000     -0.01790890      0.02204750      0.01881390       1
O              24.71310000      8.82257000     16.84170000      0.03212730     -0.05707440     -0.04414100       8
H              -0.02258600      8.13060000     15.19470000     -0.04439590      0.05220970      0.07231570       1
H              24.55770000     10.58040000     17.24060000      0.01294090      0.00205017     -0.03103790       1
O               7.83447000      8.58825000     17.42510000      0.04112980      0.01607000      0.03158840       8
H               8.32517000      7.72787000     19.14840000     -0.00057882      0.02869680     -0.06075390       1
H               9.47386000      9.46383000     16.94140000     -0.03542470     -0.02932830      0.01145790       1
O              16.59650000      4.13394000     19.10620000      0.03874620     -0.01825900     -0.08907740       8
H              18.17790000      3.12032000     19.47910000     -0.03402790      0.02597430     -0.00413335       1
H              16.77710000      4.24160000     16.98710000     -0.00519961     -0.00129504      0.09551590       1
O              18.06540000      8.48736000     23.52040000     -0.03902120     -0.08658110     -0.03481400       8
H              17.26830000      9.12385000     22.00580000     -0.00026729      0.02750200     -0.00495138       1
H              17.12050000      6.62434000     23.07610000      0.04712570      0.06621970      0.03549590       1
O              21.07720000     23.97060000     16.19090000     -0.03459960      0.05456190     -0.01315130       8
H              20.29270000      0.04139200     16.56060000      0.03260110     -0.07487830     -0.02667290       1
H              20.73950000     23.55030000     14.37430000      0.00330446      0.02209760      0.03382510       1
O               4.32096000      7.83992000      6.78260000     -0.01784220      0.03513480     -0.00124055       8
H               5.22270000      9.05686000      5.51810000     -0.01436960     -0.01423780      0.03234250       1
H               2.80048000      8.68616000      7.62550000      0.04453120     -0.01562790     -0.03370350       1
O              11.21140000      6.50007000     20.13420000      0.02552270     -0.02245540     -0.02058060       8
H              12.68910000      5.37544000     19.69570000     -0.03329010      0.02796900      0.02271050       1
H              11.00840000      6.86048000     21.87690000      0.01537650     -0.01081400      0.01545270       1
O               0.28734600     17.11660000     19.23750000     -0.05452570     -0.08758130     -0.00004574       8
H               0.52389500     16.48310000     20.96700000      0.00948226      0.00867149     -0.01649210       1
H              24.90690000     15.44000000     18.64680000      0.04496110      0.07913440      0.01204670       1
O              21.37990000     14.70520000      5.68152000      0.04530920      0.00484886     -0.03054640       8
H              21.34470000     12.94370000      6.23804000      0.00845077      0.01518540     -0.01105430       1
H              22.97350000     14.97480000      4.52273000     -0.05571150     -0.02264490      0.03989150       1
O              12.87640000      7.08967000      4.24205000      0.03096760      0.04546850      0.08309740       8
H              13.40800000      5.54747000      5.33161000     -0.01912670      0.04403530     -0.01570470       1
H              13.07600000      8.94610000      5.61707000     -0.00807049     -0.09025100     -0.06149420       1
O               2.74631000     12.25560000     22.09210000      0.00517384      0.05429670      0.04734200       8
H               4.31686000     12.88000000     23.05980000     -0.03393230     -0.03380750     -0.04082890       1
H               2.76900000     10.83910000     21.02580000      0.02812680     -0.01692780     -0.00492271       1
O              18.70490000      9.31998000     11.02350000      0.01372520      0.04506550     -0.05047470       8
H              19.91080000     10.37920000      9.94939000     -0.01130220     -0.03985000      0.03218910       1
H              17.28320000     10.45910000     10.56240000      0.00729833     -0.01812720      0.01739570       1
O              15.68560000     11.15770000     18.67620000      0.00762703     -0.08022210     -0.01002770       8
H              16.66760000     12.61800000     18.33450000      0.03458950      0.02613220     -0.01742880       1
H              16.66350000      9.70469000     17.78700000     -0.03134670      0.05175600      0.02389770       1
O              20.13600000      4.64437000     14.27980000     -0.02946940      0.03659850     -0.06767710       8
H              18.74030000      5.33978000     13.04300000      0.04226250     -0.02262030      0.04165780       1
H              21.57600000      5.51325000     13.43330000     -0.01796090     -0.01208980      0.02709060       1
O              16.18770000     13.56210000     11.51230000     -0.02570890     -0.00502716     -0.02107020       8
H              17.12320000     13.31320000     13.06520000     -0.01222630      0.00993977      0.01393300       1
H              14.32390000     13.63450000     11.62130000      0.03695520      0.00830374      0.01439390       1
O              19.36790000     14.45270000     16.89630000      0.00089341      0.04811460      0.05638130       8
H              19.29920000     16.08200000     18.09950000     -0.00105148     -0.06057160     -0.05018560       1
H              21.93300000     12.48780000     21.51650000     -0.01828530      0.02859370     -0.03988290       1
O               7.69247000     20.93780000     -0.18668100     -0.00713894     -0.06567560     -0.01168040       8
H               8.00135000     19.35870000      0.88088200     -0.00604646      0.03982740     -0.02422720       1
H               7.13305000     20.05210000     23.97260000      0.01619720      0.02702370      0.03459900       1
O               0.08851100     23.70490000      7.62880000      0.03543470      0.03724360     -0.01527380       8
H              24.99130000     25.20460000      0.34506900      0.04737170      0.01996170      0.05732150       1
H               1.13804000     25.24210000      7.02287000     -0.03506350     -0.04958390      0.01719030       1
O              15.43250000      3.58929000      0.44633100      0.02659470     -0.03665670      0.06254160       8
H              13.89320000      3.01935000      1.36297000      0.02295660      0.01846840     -0.01721200       1
H              16.82370000      3.07053000      1.88381000     -0.05035480      0.01000010     -0.05533190       1
O              13.26180000     20.06050000     16.52260000      0.00963727      0.01930390     -0.04712980       8
H              13.92710000     20.44790000     13.52950000      0.00056912     -0.01756860      0.07895890       1
H              13.56570000     21.49790000     17.74920000     -0.00419137     -0.01498960     -0.04592720       1
O               2.76622000     18.38310000      5.00771000      0.00847071     -0.02504440      0.00840148       8
H               1.89696000     19.48000000      6.14668000     -0.00439899      0.02219550      0.00691230       1
H               3.55075000     17.10250000      6.08182000     -0.00786925      0.01328410     -0.01351770       1
O               3.80924000      0.53433600     11.11580000      0.06101590     -0.05574810     -0.09494510       8
H               2.75731000     24.76560000     10.56970000      0.01009960      0.03130760      0.00707556       1
H               5.52594000      0.11418000      9.30513000     -0.08179220      0.02439300      0.08077710       1
O               0.16372100     14.98270000      1.89769000      0.02644220      0.00405870      0.00503522       8
H               0.44155200     16.29650000      3.25202000      0.01270930     -0.02019280     -0.03068460       1
H               1.87367000     14.38440000      1.32151000     -0.03527470      0.01676710      0.01986390       1
O               7.75058000     14.86880000     24.93210000      0.02037650     -0.03233690     -0.01660850       8
H               7.86788000     13.15080000     -0.05078800      0.00153909      0.03231640      0.00221416       1
H               9.16851000     14.85300000     23.67930000     -0.02649840      0.00111584      0.01798980       1
O              17.75610000      2.99827000      5.03457000      0.04814060     -0.02113750      0.01212150       8
H              17.62610000      4.62722000      4.30164000      0.00903784      0.01742120      0.00826299       1
H              19.60740000      2.75669000      5.57395000     -0.04917170      0.01069780     -0.01787590       1
O              23.86210000      4.20422000      4.50640000     -0.00975777      0.03616950      0.00612520       8
H              24.47270000      4.66253000      6.15698000      0.01431050     -0.02276740      0.01345970       1
H              23.13340000      5.88406000      4.30641000     -0.00928772     -0.00959853     -0.01808500       1
O               8.05408000     24.39690000      5.92619000      0.00585878      0.03765630      0.06174200       8
H               8.91143000     24.16920000      7.65137000     -0.01815980     -0.01167030     -0.05796290       1
H               8.39366000     23.15170000      4.72847000      0.01460200     -0.02833020     -0.00689235       1
O              15.76100000     17.05360000     -0.11017900     -0.06845980      0.00934476     -0.07305930       8
H              16.25320000     18.83660000     25.87500000     -0.01688010     -0.01915790     -0.01220710       1
H              13.80350000     17.00440000     23.78390000      0.08126100      0.00947896      0.07685460       1
O               0.81648900     13.46970000     12.92170000      0.02731820      0.02031480      0.01066970       8
H              -0.41821500     14.78820000     12.51880000      0.01932740     -0.00737107      0.00246595       1
H               2.52964000     14.23860000     13.25040000     -0.04275970     -0.02019890     -0.00891858       1
O              23.02540000     11.02680000     21.30940000      0.02805190      0.04249530      0.11732200       8
H              21.82870000      9.81929000     21.83090000     -0.04251030     -0.05246480     -0.01276270       1
H              23.51550000     11.34850000     23.40070000      0.01899540     -0.01166150     -0.06829910       1
O              13.86000000     12.68330000      2.45515000      0.00655492     -0.04930080     -0.03061440       8
H              14.78170000     13.87450000      1.48191000      0.00727168      0.02508640      0.00065476       1
H              14.00020000     11.23360000      1.22598000     -0.00987470      0.02249550      0.03314530       1
O              22.31970000      4.02731000     21.04930000      0.03933600     -0.00768035     -0.01329470       8
H              23.84750000      3.86447000     19.86920000     -0.04179260      0.01105950      0.02585380       1
H              22.54880000      5.43882000     22.20030000      0.00229356     -0.01295130     -0.01507380       1
O              12.26490000     18.95080000      6.30454000      0.01638050      0.01991650      0.01143960       8
H              14.00970000     18.47090000      5.92039000     -0.02790730     -0.00507425     -0.00139677       1
H              11.05460000     17.68510000      5.97869000      0.00850226     -0.01769180     -0.01520390       1
O               0.59929800      0.47484200      2.36423000     -0.02872550     -0.10599400     -0.07037550       8
H               0.17552800      2.05327000      1.78904000     -0.00681218      0.07064430     -0.00174236       1
H               2.29750000      0.05542200      1.70248000     -0.00253291      0.01142140      0.01223900       1
O               7.80247000      0.90120500     16.61630000     -0.01413860     -0.01319850      0.03209980       8
H               6.50612000      2.29175000     17.11260000      0.03019060     -0.03438720     -0.00662880       1
H               8.30668000     -0.24216100     18.04790000     -0.00694555      0.03688490     -0.02862810       1
O               4.49059000      6.81824000     23.11970000     -0.07407000      0.00319562     -0.00022098       8
H               5.91161000      6.05823000     23.98630000     -0.01038040     -0.00195753      0.02170830       1
H               2.64310000      6.67449000     23.92400000      0.08988570     -0.00290212     -0.02060660       1
O               6.24423000     14.06790000     13.25790000      0.00519662      0.01743420      0.02399260       8
H               5.84203000     15.71380000     14.17100000      0.02605290     -0.03772690     -0.00701641       1
H               7.31341000     12.96230000     14.38200000     -0.02552900      0.02911060     -0.01969490       1
O              16.03990000     23.17110000      6.10402000     -0.02100580     -0.00173442      0.01609030       8
H              16.87860000     22.46090000      7.58164000      0.01200380      0.01223950     -0.03019530       1
H              16.98410000     23.21780000      4.55698000      0.01387450     -0.00720189      0.01728580       1
