192
TotEnergy=-1103.43466000 cutoff=-1.00000000 nneightol=1.20000000 pbc="T T T" Lattice="24.53278000       0.00000000       0.00000000      -0.00000100      24.53278000       0.00000000      -0.00000100      -0.00000100      24.53278000" Properties=species:S:1:pos:R:3:force:R:3:Z:I:1
O              25.34370000     -1.56208000    -36.06670000      0.01392300     -0.06653970     -0.09740880       8
H              23.53500000     -1.94603000    -36.05350000     -0.00513788      0.00632544      0.01574040       1
H              25.73080000     -2.81963000    -37.84350000     -0.00616589      0.05906570      0.08479960       1
O              49.30200000     46.62730000     -2.71889000      0.00755755      0.02380820      0.04090130       8
H              50.53970000     47.79520000     -1.77300000     -0.02544370     -0.02423540     -0.02174970       1
H              50.19790000     45.79950000     -4.00886000      0.01714850     -0.00274784     -0.02068930       1
O              15.42370000      1.43467000     16.41370000     -0.07767220     -0.05356110      0.05204760       8
H              15.14790000      2.39460000     17.98710000      0.02141240      0.00502803     -0.00405995       1
H              14.06090000     -0.14748600     17.23770000      0.04685220      0.03490880     -0.05205530       1
O              -3.77240000    -12.24510000     -1.85985000      0.00334312      0.04662590     -0.00096740       8
H              -3.95830000    -12.13770000     -3.63828000      0.00265190     -0.02370540     -0.02268910       1
H              -3.75479000    -10.30560000     -1.76069000     -0.00195535     -0.02806330      0.02368940       1
O               5.73956000     34.02540000     17.35880000      0.05902470     -0.02868180      0.00441884       8
H               7.21093000     34.12200000     18.85300000     -0.04590190      0.00772052     -0.04054960       1
H               6.44352000     32.84530000     15.99900000     -0.00971385      0.02580740      0.02999490       1
O              -6.21287000     12.02490000      7.68006000     -0.01043770      0.04870420      0.02145340       8
H              -6.49874000     13.99790000      7.96361000     -0.00239421     -0.06129830     -0.02071230       1
H              -7.63689000     11.40190000      6.67818000      0.01385020      0.00530240      0.00488373       1
O              45.00140000     30.55370000     15.20210000      0.13154100      0.13873800      0.10805900       8
H              46.94520000     30.36860000     15.60210000     -0.07066310     -0.01001040     -0.03206500       1
H              44.12830000     29.45950000     14.39430000     -0.05971560     -0.12503900     -0.08140310       1
O               2.63018000    -35.60250000      7.45080000      0.04378170      0.01557840      0.06292590       8
H               3.96301000    -36.83050000      8.08400000     -0.03311690      0.02462140     -0.01729960       1
H               2.92500000    -34.17150000      8.91765000     -0.01529750     -0.03896220     -0.03347330       1
O              31.82240000    -33.29990000     18.87500000     -0.03867860     -0.06117680      0.02551530       8
H              29.91490000    -33.68300000     18.06600000      0.06176040     -0.00228126      0.02711660       1
H              32.40040000    -34.87390000     20.32360000     -0.02579850      0.05435550     -0.06320040       1
O               8.72080000    -27.39940000    -24.65140000      0.07314750     -0.01508650     -0.02330770       8
H              10.75290000    -28.01350000    -24.72650000     -0.07758220      0.02951910      0.01343110       1
H               7.96591000    -27.26150000    -23.00970000      0.00930763     -0.01546490      0.00885381       1
O             -13.89890000      2.57808000      8.41613000      0.00346664      0.00640795      0.01515200       8
H             -12.69420000      2.44905000      7.12748000      0.00689302     -0.02420480     -0.04954290       1
H             -12.77460000      3.80439000      9.11457000     -0.00966443      0.01871610      0.03490000       1
O             -12.43630000     29.25270000     52.36590000      0.02287120     -0.10224100     -0.03717080       8
H             -13.76180000     28.01200000     51.51670000      0.02694520      0.04646980      0.01601700       1
H             -10.83730000     27.86180000     51.92930000     -0.05486730      0.05226660      0.01383560       1
O              12.04330000    -32.96190000    -15.01660000     -0.00815513     -0.02510260     -0.06126590       8
H              11.49430000    -34.59810000    -15.92070000      0.01087300      0.03713550      0.02039310       1
H              11.76710000    -33.21900000    -13.30150000     -0.00560809     -0.00592994      0.04070060       1
O              27.57360000     13.92770000     40.81370000     -0.06566750      0.05082620      0.03383230       8
H              25.67040000     13.84870000     41.74880000      0.07873390     -0.02000530     -0.04692020       1
H              28.52380000     12.42060000     40.54100000     -0.00591466     -0.02370870      0.01073350       1
O               2.98458000      0.61210300      0.16466900      0.01197130      0.01767240     -0.01513040       8
H               2.70798000      1.00257000      1.89019000     -0.00139047     -0.01885440      0.03110950       1
H               2.66910000      2.27361000     -0.45232100     -0.00776604      0.00626697     -0.02290880       1
O             -32.59550000     29.00630000     32.42970000     -0.05511350      0.00725805      0.02497610       8
H             -31.37570000     28.12360000     31.55790000      0.03914370     -0.02450490     -0.03145910       1
H             -31.96510000     30.62410000     32.77510000      0.00913486      0.01851130      0.00101842       1
O             -33.12840000     11.20170000     24.40200000      0.00918609     -0.02203800     -0.02603590       8
H             -34.16240000     10.26050000     23.16840000     -0.00098728      0.00804925      0.00494673       1
H             -31.42230000     11.05670000     23.58930000     -0.01474080      0.01069340      0.01993360       1
O             -20.97570000     64.91470000    -21.77830000      0.03287580     -0.02279630     -0.06481460       8
H             -21.75190000     64.19320000    -20.33170000     -0.00001294     -0.02489650      0.01415550       1
H             -20.13410000     63.54590000    -23.01090000     -0.03333400      0.03658130      0.05078820       1
O              69.50070000     21.66870000     38.08490000     -0.00716233      0.02513820     -0.02774810       8
H              68.28330000     23.10830000     37.56700000      0.02058190     -0.04109540      0.02032500       1
H              68.90490000     20.25110000     39.08830000     -0.01338010      0.02390130     -0.00053997       1
O              56.68100000    -16.59720000      3.91685000     -0.07024050      0.03533050      0.01082290       8
H              55.79730000    -17.64570000      5.12943000     -0.00426207     -0.00412461     -0.00186216       1
H              58.22980000    -17.30670000      3.81435000      0.06959840     -0.03018560     -0.01097520       1
O              27.54340000     16.80110000    -12.95560000      0.02525700      0.01622860     -0.00474733       8
H              29.18160000     17.88990000    -13.23000000     -0.03510350     -0.02969340      0.00985532       1
H              27.53070000     15.95130000    -11.28670000      0.00692973      0.00784700     -0.01604810       1
O             -12.59820000      4.65416000     63.14990000      0.01769860     -0.10663800     -0.03854500       8
H             -12.49040000      6.12137000     63.94310000      0.00858155      0.09103360      0.04834380       1
H             -11.30880000      3.50783000     63.99210000     -0.02383440      0.01397290     -0.01569470       1
O               8.42374000      2.47317000     -0.03210700     -0.00890284     -0.05440790     -0.00609499       8
H               6.68527000      2.24450000      0.39295500     -0.01730850      0.02476200      0.01051770       1
H               8.36618000      0.58500700     -0.46960600      0.03302730      0.02712200     -0.00045122       1
O              44.06310000      2.29258000     28.67240000     -0.00766691     -0.00285947     -0.00460724       8
H              44.61220000      3.85602000     27.73850000      0.01959630     -0.02840760      0.01860450       1
H              45.30840000      0.86512700     28.95400000     -0.00746546      0.02791850     -0.01340120       1
O              -1.60736000     58.75550000     31.43270000      0.01204310      0.01631290      0.00893434       8
H              -3.05236000     59.78860000     31.86450000     -0.02031740     -0.01122050     -0.00766604       1
H              -0.35025800     60.01620000     31.86660000      0.01246510     -0.00560742     -0.00678637       1
O              10.85910000     39.15060000     14.43200000      0.04904050      0.08002270      0.08562510       8
H              10.00970000     38.01930000     13.55090000     -0.06772410     -0.07637040     -0.05708460       1
H               9.77909000     39.62710000     15.91740000      0.01506020     -0.00578671     -0.02299560       1
O             -16.51580000     20.66960000     19.20680000     -0.01261870     -0.05917650     -0.00286584       8
H             -17.19960000     18.54840000     19.19130000      0.03332170      0.05601260     -0.00104716       1
H             -16.22200000     20.91500000     20.97940000     -0.00829984      0.00536005      0.00827917       1
O              29.76970000     35.61670000     49.38420000     -0.02425940     -0.05870690      0.00524032       8
H              30.52300000     34.57060000     50.82380000     -0.00976606      0.01629630     -0.02363980       1
H              28.31390000     34.42710000     48.72590000      0.03047080      0.03719680      0.01928630       1
O              13.14360000     33.17800000     20.56880000      0.04526010     -0.00917044     -0.03732570       8
H              13.94820000     33.88170000     18.77040000     -0.03341650     -0.03288230      0.05709280       1
H              13.79710000     31.39640000     20.92320000     -0.01408590      0.03759670     -0.01685230       1
O               3.44686000    -26.97620000     17.31970000     -0.08347890     -0.00750390     -0.02215430       8
H               2.29833000    -27.19000000     15.68380000      0.05489170      0.01402980      0.03699310       1
H               5.20893000    -26.84030000     17.31990000      0.03157870     -0.00940954     -0.01497590       1
O              -0.04452400     19.21130000      1.54369000      0.02095670     -0.05236060      0.03192700       8
H               1.43113000     17.94330000      1.63340000     -0.03581240      0.01835240      0.00805325       1
H               0.37833600     20.08020000      0.08161900      0.00344757      0.03377760     -0.04466440       1
O               1.19853000      4.17900000     13.27510000     -0.00724094     -0.00244168      0.04692490       8
H               1.26539000      5.26039000     11.85340000      0.00089935      0.02048680     -0.02284380       1
H               1.50138000      2.53548000     12.72020000      0.00185009     -0.03163800     -0.01412990       1
O             -33.44930000     52.51870000    -28.18530000      0.01231510      0.01808280      0.04571660       8
H             -31.92930000     53.62090000    -28.32580000     -0.00969877     -0.00475242     -0.00565314       1
H             -33.42450000     52.14980000    -26.31690000     -0.00869274     -0.00473425     -0.03078990       1
O               5.76500000     53.21940000    -17.29920000      0.01991090     -0.05290190     -0.03117080       8
H               7.54410000     52.54790000    -17.16050000     -0.01848280      0.01969040      0.01113160       1
H               5.08794000     51.69560000    -18.29640000     -0.00231068      0.03272930      0.02306460       1
O             -38.43420000     36.15180000      6.96388000      0.08739430      0.03968410      0.04843860       8
H             -36.81770000     35.46920000      6.30153000     -0.03208450     -0.01029380     -0.01175830       1
H             -39.98570000     35.72050000      6.42536000     -0.05146370     -0.03381930     -0.04828300       1
O              13.70720000     34.39790000     15.62150000      0.04642730     -0.04134180     -0.00301670       8
H              15.15500000     34.37010000     14.38640000     -0.02592570      0.00922730      0.02149450       1
H              12.62740000     35.67530000     15.13370000     -0.02743590      0.03757550     -0.01013330       1
O             -16.64420000    -13.03780000     11.57930000      0.00473975     -0.07247510     -0.02789870       8
H             -15.88030000    -13.20740000      9.89542000      0.00183112      0.02006930      0.01515650       1
H             -16.75050000    -15.02390000     11.75270000     -0.00519742      0.05195560      0.01864400       1
O             -47.36470000      2.22423000     18.12140000     -0.02484090      0.03086390     -0.01763540       8
H             -46.40650000      0.68294300     18.01030000      0.00191564     -0.01696510     -0.00633747       1
H             -47.96290000      2.70472000     16.38260000      0.01763080     -0.01066060      0.03000010       1
O             -22.37350000    -17.48510000     34.19960000      0.02011340      0.00642330      0.00908645       8
H             -20.96050000    -18.38930000     33.44810000     -0.00899553      0.00010402     -0.00881837       1
H             -23.66700000    -17.13540000     33.01800000     -0.01097360      0.00216062     -0.01513800       1
O              15.38420000     16.12300000     25.74050000     -0.00637811     -0.02288140      0.02126180       8
H              15.61740000     16.42530000     27.54630000     -0.00168179      0.00251278     -0.00850007       1
H              15.05040000     14.24040000     25.70310000      0.01225580      0.03073100     -0.01444070       1
O             -21.32480000     -0.24448200     29.59680000     -0.00244040     -0.00820126      0.00141163       8
H             -20.82640000     -2.00960000     29.13450000      0.00125086      0.02392930      0.01290100       1
H             -23.14070000     -0.24335200     29.88450000      0.00445568     -0.00706139     -0.00233045       1
O              42.50690000     10.45210000     37.70950000     -0.07261760      0.15640100      0.04226450       8
H              42.99060000      8.97878000     38.05940000      0.07253790     -0.17464400      0.03900840       1
H              42.80090000     10.88620000     36.10590000      0.01511980      0.01372990     -0.09417390       1
O              -6.67994000    -29.69170000     -6.57871000      0.01532700     -0.10303100     -0.02844950       8
H              -5.75860000    -30.56200000     -5.22918000     -0.00458570      0.02618620      0.00991315       1
H              -6.59533000    -31.60360000     -7.66549000     -0.01773010      0.07599910      0.01924190       1
O              56.42800000    -17.99890000    -11.30740000      0.00202163     -0.02385270     -0.01893570       8
H              57.76220000    -19.30370000    -11.62340000     -0.01390860      0.01866870      0.01403190       1
H              54.85830000    -18.76660000    -11.87470000      0.00621434      0.00366991      0.00592819       1
O               9.23187000     -1.04892000     12.93350000     -0.02912970     -0.02946320      0.02237910       8
H               9.48150000      0.10541600     11.65560000      0.01353150      0.02981370     -0.03149560       1
H              10.76990000     -1.37282000     13.78000000      0.01458740     -0.00243894      0.00849834       1
O             -35.09180000     -3.67868000     48.04760000     -0.02690500     -0.00479454      0.06543400       8
H             -34.48890000     -3.38926000     46.47630000      0.02276300      0.00995313     -0.06481100       1
H             -34.58510000     -5.34751000     48.55410000      0.00194077     -0.01031850      0.00209608       1
O              17.43230000     -8.82474000    -10.27810000      0.00875096     -0.05973700     -0.00960217       8
H              15.61150000     -9.09758000    -10.31230000      0.00729094      0.00524947      0.00118994       1
H              18.09870000    -10.65910000    -10.60830000     -0.01923020      0.05490560      0.01591770       1
O              22.09060000     18.99990000      8.84268000     -0.02541850      0.02466390     -0.05558720       8
H              21.82380000     19.65720000     10.43710000     -0.00467031      0.00654170      0.04924480       1
H              23.17800000     17.63620000      8.72078000      0.02594110     -0.02545070      0.01102220       1
O              12.50430000     21.40270000     -7.51706000      0.04215130     -0.00068334      0.02789070       8
H              10.91980000     21.35170000     -6.35304000      0.02410670     -0.01792250     -0.01717350       1
H              14.19110000     20.51800000     -6.91917000     -0.06015980      0.02162920     -0.01248080       1
O              22.63590000     47.31010000     29.37430000     -0.00964369     -0.03351710      0.07793870       8
H              22.50870000     46.32160000     31.31420000      0.00366218      0.02759220     -0.09063730       1
H              22.91590000     46.01660000     28.05770000      0.00425835      0.00258226      0.01779000       1
O              -9.73624000      9.20124000      4.53721000      0.00018333      0.01675040     -0.00612518       8
H              -9.49194000      9.66546000      2.78583000      0.01935400      0.03241850     -0.00577537       1
H             -10.43400000      7.66429000      3.98084000     -0.02073640     -0.04260490      0.01963380       1
O              17.91690000    -22.55740000     12.19090000     -0.07955310      0.00382052      0.00644021       8
H              16.38370000    -22.03960000     10.91950000      0.06600690     -0.01649680      0.04614990       1
H              16.97410000    -22.83400000     13.95990000      0.02254820      0.00673822     -0.04775210       1
O              -1.51620000     11.76160000     41.89830000      0.06432520      0.06766400      0.07859680       8
H              -0.51537900     10.37650000     42.43540000      0.00379620     -0.02752920     -0.00393452       1
H              -2.70720000     11.32790000     40.83830000     -0.07672950     -0.03708520     -0.07544050       1
O              44.58810000     41.83050000     -1.45810000      0.04029380      0.01037300     -0.01814680       8
H              45.92580000     42.71520000     -0.53364000     -0.00374500     -0.00610016     -0.00637707       1
H              43.19150000     41.85230000     -0.39273700     -0.03546190     -0.00633544      0.02353800       1
O              25.78090000      7.63586000    -31.12670000     -0.02056340      0.05568190     -0.01435540       8
H              27.49080000      8.22506000    -31.56410000      0.00629578     -0.00590948      0.00882559       1
H              25.80890000      6.03788000    -30.46600000      0.01153040     -0.05290800      0.01670920       1
O             -18.51510000     44.60040000      4.35615000     -0.01274350     -0.08026690      0.04740410       8
H             -19.82670000     43.23360000      3.72860000      0.04670800      0.03241150      0.01053450       1
H             -17.76660000     43.58380000      5.97136000     -0.02965060      0.05005820     -0.06100700       1
O               7.12662000    -29.62420000     34.66320000     -0.02907100     -0.02426700     -0.02473320       8
H               8.58821000    -30.64590000     34.55200000      0.01866480     -0.00866382      0.00206515       1
H               7.42685000    -28.38360000     35.87900000      0.01658530      0.03218070      0.02465870       1
O              -1.95145000     30.59330000      2.64703000      0.01767020      0.04988800      0.01208000       8
H              -1.43509000     31.82590000      4.05882000     -0.02010330     -0.02884350     -0.03533850       1
H              -1.69164000     31.59790000      1.06051000      0.00023762     -0.02251320      0.02582490       1
O              -8.07105000     -7.89410000      6.83068000      0.04901500      0.06523000      0.01741210       8
H              -9.38322000     -7.34518000      8.00571000     -0.00692092     -0.01214790     -0.00346928       1
H              -6.72579000     -6.46467000      7.12895000     -0.03755680     -0.04760650     -0.01353720       1
O              -5.00728000      6.79753000     20.54330000     -0.01367470      0.01447740     -0.00840949       8
H              -3.84831000      5.53947000     21.18400000      0.01226490     -0.00415923     -0.01080340       1
H              -4.81854000      7.11744000     18.71980000      0.00654788     -0.01769990      0.01964770       1
O              24.89690000    -15.82290000     -1.30162000      0.02356200     -0.01078800     -0.01853620       8
H              25.02810000    -15.97990000     -3.13545000      0.00719001     -0.01429400      0.00576371       1
H              23.83290000    -14.40520000     -1.30972000     -0.02544640      0.03099080      0.01230860       1
O              22.83960000      2.65778000     46.52330000      0.06682670      0.05033170     -0.06682050       8
H              22.08240000      1.14662000     46.60680000     -0.04526990     -0.07309070      0.01770580       1
H              23.97740000      2.10597000     44.88430000     -0.02286260      0.03093270      0.04555760       1
O              15.51220000     25.81000000     50.45370000      0.03029100      0.05950980      0.02688160       8
H              17.20440000     26.02590000     51.37010000     -0.01760590      0.00335273     -0.00210796       1
H              15.57390000     24.16630000     49.94310000     -0.01199500     -0.06048830     -0.02003020       1
O             -15.88230000     10.96930000     21.16810000     -0.04960890     -0.00186871      0.03869630       8
H             -14.30690000     10.07040000     21.46490000      0.00231734     -0.00140203     -0.00085520       1
H             -17.25240000     10.71700000     22.73880000      0.04252960      0.01051590     -0.03909470       1
