192
TotEnergy=-1102.26730000 cutoff=-1.00000000 nneightol=1.20000000 pbc="T T T" Lattice="25.49038000       0.00000000       0.00000000      -0.00000100      25.49038000       0.00000000      -0.00000100      -0.00000100      25.49038000" Properties=species:S:1:pos:R:3:force:R:3:Z:I:1
O              12.24580000      5.56026000     11.34900000      0.08836850      0.02002100      0.08402660       8
H              13.22320000      5.41976000     13.39820000     -0.04993730      0.00646997     -0.10886200       1
H              10.72010000      4.72843000     11.54990000     -0.03566500     -0.03235620      0.01127160       1
O              14.42450000     23.29290000      9.19999000      0.00220235     -0.00413620     -0.00827516       8
H              14.16430000     21.69050000     10.17680000     -0.01445070      0.03284240     -0.02814020       1
H              13.08740000     23.84520000      7.97154000      0.01482050     -0.03148360      0.03192730       1
O              21.07100000     24.67830000      2.12001000      0.00750691      0.00771635     -0.04467980       8
H              19.71840000     23.47490000      2.48953000      0.01655190      0.01179480     -0.01772030       1
H              21.45110000     24.90990000      0.17687600     -0.02545880     -0.02134660      0.06500670       1
O              11.26970000     23.80810000     16.71720000     -0.07245130      0.03078730     -0.00117533       8
H              12.68760000     22.77520000     16.79040000      0.02367450     -0.01556430     -0.01866930       1
H              10.01670000     23.58400000     15.33160000      0.04108410     -0.00091334      0.02383270       1
O               1.71145000      4.26026000     24.91050000      0.00832996     -0.17013000     -0.09280390       8
H               0.31780500      4.18233000     23.67380000      0.01980280     -0.00728666      0.01483470       1
H               1.50876000      5.72316000     -0.02117700     -0.02664570      0.18425800      0.08032030       1
O              21.64220000      4.69802000      0.11031500      0.04520610      0.05329220     -0.09558410       8
H              21.61960000      6.48948000      0.41513100      0.00542355      0.00149649      0.00458650       1
H              21.00080000      4.06205000      1.49880000     -0.04400080     -0.04963290      0.09506220       1
O               2.10911000     24.16950000      7.76229000      0.12685600      0.18812000      0.04684930       8
H               1.19242000      0.13779100      7.04509000      0.02850410      0.00025959      0.01921300       1
H               1.02496000     23.14990000      7.33803000     -0.15311500     -0.18657600     -0.05566790       1
O              12.39150000     17.88680000      4.39968000      0.05567750      0.01002450      0.02910170       8
H              12.17470000     17.28170000      2.73779000      0.00205795     -0.00456439     -0.01870400       1
H              14.28090000     18.34850000      4.63300000     -0.06246800     -0.01328170     -0.01324340       1
O              12.50970000     16.79530000     23.79780000      0.02486930      0.06601170      0.02317660       8
H              13.99920000     16.87780000     24.92000000     -0.02626280     -0.01955490     -0.02999410       1
H              11.87990000     15.23170000     23.36410000     -0.00018177     -0.04542220      0.00411828       1
O              12.39320000     18.54210000     12.52520000      0.19137000      0.17891900     -0.01981410       8
H              12.46470000     17.11180000     13.14250000      0.02307000     -0.21156700      0.08326250       1
H              10.89320000     18.66470000     12.11080000     -0.21595000      0.03217020     -0.06823840       1
O               5.34387000      9.67540000     22.76230000      0.25481600     -0.07210390     -0.12660000       8
H               5.61780000      7.89981000     23.01200000      0.00190791      0.00664782      0.00201152       1
H               4.02729000      9.98251000     23.44400000     -0.25614000      0.06582960      0.12650400       1
O               6.53504000     11.87700000      4.60430000     -0.06699430      0.09550020      0.08764290       8
H               7.97753000     11.38450000      3.96086000      0.09847290     -0.04285900     -0.05840270       1
H               7.25254000     13.58510000      5.63433000     -0.04038520     -0.04833910     -0.02683790       1
O               1.95119000     13.01490000      0.15837000     -0.12632100     -0.01345760     -0.01019720       8
H               1.13152000     14.54650000     25.06130000      0.01530000     -0.00430059      0.00077244       1
H               3.59373000     13.15480000      0.26459600      0.11385600      0.02337580      0.01057440       1
O              10.78770000      9.71454000     15.81140000     -0.10529600      0.11784500     -0.02809790       8
H               9.64056000     10.38780000     17.24960000      0.02249530      0.00324914     -0.05806810       1
H              11.44660000      8.62788000     16.80970000      0.08330970     -0.12307200      0.07880380       1
O              13.94470000      1.73148000      0.42907300      0.00027679     -0.04331950     -0.04424030       8
H              13.75160000      0.11966900      1.36234000      0.00383169      0.02137340     -0.01204380       1
H              14.12090000      1.13333000     24.05710000     -0.00057680      0.01753880      0.05748940       1
O              10.28260000     11.63350000     -0.15744400     -0.13311400      0.29240000      0.02943500       8
H              10.92030000     10.29990000     -0.27942000      0.16205400     -0.30463200     -0.01044220       1
H               9.08088000     11.48410000     24.04760000     -0.02992410      0.01171440     -0.01550510       1
O              18.40890000     12.98380000     -0.20535500     -0.02621310      0.00651620      0.01266760       8
H              19.56400000     13.63110000      1.00542000      0.01418080     -0.00906893     -0.00463858       1
H              19.19960000     12.40940000     23.75640000      0.00958692      0.00411792     -0.00380295       1
O              -0.37978300     20.01340000     11.22850000     -0.00344014      0.03511000      0.01191530       8
H              24.99550000     18.24990000     10.83120000     -0.01937970      0.01413140     -0.01197150       1
H              23.77260000     21.33890000     10.86540000      0.02584350     -0.05556990      0.00635674       1
O              -0.17795900      4.14323000      8.57344000     -0.05943170     -0.01578960     -0.03373420       8
H              -0.03935400      3.03947000     10.04470000     -0.00716634      0.00158122     -0.01822020       1
H              23.09990000      3.92323000      7.39703000      0.07015720      0.00907071      0.03163130       1
O              12.96510000      4.94131000     18.12450000      0.04147980      0.00792163      0.00599307       8
H              14.00000000      4.89499000     19.71560000     -0.02011500     -0.00155864     -0.04061000       1
H              14.20750000      4.93591000     16.66800000     -0.01801560     -0.00631200      0.04035790       1
O              16.29760000      6.86674000      6.75550000      0.08045490      0.08112850     -0.08198000       8
H              15.11170000      6.11391000      7.56722000     -0.10463900     -0.07778030      0.08751340       1
H              15.98690000      8.63434000      7.26959000      0.02181630     -0.00714247      0.01031650       1
O              20.80820000      4.10579000      5.74964000      0.02895800      0.01128090      0.02255400       8
H              20.29360000      2.45398000      6.04881000     -0.00756865     -0.05184420     -0.01408420       1
H              19.93590000      4.78560000      7.16908000     -0.01644570      0.03567660      0.00312212       1
O               0.88439800     13.53810000      9.21100000     -0.00840351     -0.01970870     -0.02303920       8
H               1.26525000     11.87800000      8.39906000     -0.00964155      0.02534510      0.01800960       1
H               1.20449000     13.25380000     10.95770000      0.00851131     -0.00336072      0.00804674       1
O               9.27905000      2.16135000     23.40100000     -0.00795327     -0.05222010     -0.01664100       8
H               9.60711000      0.29460300     22.97940000     -0.01554500      0.04607000      0.00429814       1
H              10.43700000      2.42280000     24.73940000      0.01475470      0.00592040      0.01189990       1
O              11.42570000     22.84700000      4.46425000     -0.03836410      0.05768860     -0.01065610       8
H              10.01950000     21.72570000      4.53173000      0.00630996     -0.02221580      0.00392115       1
H              10.30290000     24.39510000      4.31146000      0.02901330     -0.01908210      0.00887258       1
O               7.78369000     12.85010000     18.92660000     -0.02072290      0.15449200     -0.14055900       8
H               6.05687000     13.65200000     18.64300000      0.04639940     -0.01674040      0.01445820       1
H               7.63748000     11.72500000     20.03100000     -0.02973750     -0.13270700      0.13571900       1
O              19.57690000     23.23970000      7.77461000     -0.05501990      0.16378200      0.03890590       8
H              19.16800000     21.77380000      7.25294000     -0.01511330     -0.16314600     -0.05842510       1
H              17.55250000     23.76100000      7.58721000      0.06476600     -0.00282705      0.02673400       1
O               8.58676000      1.23604000     11.46430000      0.07785310     -0.02634760     -0.10887900       8
H               7.34489000      1.99085000     12.29980000     -0.07587890      0.04787990      0.04349170       1
H               8.33507000      1.94239000      8.90386000     -0.02369780     -0.03493070      0.03919840       1
O              15.45060000     21.13100000     16.20940000      0.11308700      0.05923070      0.00826075       8
H              16.47220000     21.27840000     14.63930000     -0.01404610      0.00332587      0.03130390       1
H              14.17520000     20.16420000     15.79630000     -0.08694190     -0.07482500     -0.03716820       1
O              21.44840000     23.34010000     21.90690000     -0.07882810     -0.07620250      0.05632540       8
H              22.45620000     -1.04064000     21.24680000      0.07430360      0.09839910     -0.05962750       1
H              22.57480000     21.97810000     22.11280000      0.00782960     -0.02457330      0.00467404       1
O              17.87920000     18.84860000      1.37431000      0.01273070     -0.07955380      0.05619430       8
H              17.30610000     17.02490000      1.12661000      0.01346230      0.05323350     -0.00873648       1
H              17.23010000     19.93430000      0.19562000     -0.02822730      0.01706640     -0.04696280       1
O              17.20810000      4.40733000     14.52960000     -0.00967329     -0.07095820     -0.03596730       8
H              17.81170000      3.33593000     13.05330000     -0.02418980      0.02020780      0.03896070       1
H              18.23750000      5.77310000     14.32770000      0.02773990      0.04952080     -0.00212724       1
O              21.27660000     18.52880000      5.68258000     -0.21575500     -0.15900400      0.08510470       8
H              20.92230000     17.27120000      4.35959000     -0.00611776      0.01807490      0.01642200       1
H              22.49410000     19.23870000      5.08463000      0.21963900      0.13405000     -0.09014810       1
O               4.56332000     11.98050000     13.59680000     -0.04740030     -0.08224320     -0.10314900       8
H               5.66653000     12.63990000     14.58170000      0.09041930      0.08425550      0.10997900       1
H               5.98722000     11.03100000     12.76980000     -0.03918290     -0.00228151     -0.00853219       1
O              20.23960000     12.20640000     20.46020000     -0.03527510      0.09852890      0.03740660       8
H              21.35400000     13.70780000     20.37330000     -0.01215490     -0.03178000     -0.00388333       1
H              21.01110000     10.83530000     19.86390000      0.04787660     -0.05776950     -0.03298500       1
O              23.03410000      6.56463000     12.47360000     -0.07436770      0.03349040      0.05981450       8
H              24.43610000      6.04046000     11.67080000      0.06364130     -0.02212250     -0.04556220       1
H              23.12660000      5.89907000     14.16540000      0.00267074     -0.01132620     -0.00733918       1
O              20.35770000     22.77250000     13.09250000     -0.09361690     -0.17070200     -0.01236990       8
H              19.84880000     22.42550000     11.30960000     -0.00020933      0.00278672      0.02469170       1
H              21.08070000     24.16220000     12.84820000      0.09053080      0.17301400     -0.01246920       1
O               0.09007300     17.39340000     21.91380000      0.06696600      0.06896740      0.02171440       8
H               1.95097000     18.04270000     21.62560000     -0.06117280     -0.01170620      0.01545540       1
H               0.28378400     15.91170000     21.06430000     -0.00273312     -0.06013860     -0.03694330       1
O               5.78896000     17.83200000     18.89580000      0.04618480     -0.05538400      0.04043090       8
H               4.90990000     19.03320000     18.02900000     -0.02065880      0.04866500     -0.03890960       1
H               7.63052000     18.06870000     18.92150000     -0.03246100      0.00180065     -0.00581471       1
O              12.45490000      6.97195000      2.74557000     -0.18549200      0.02216260      0.20235300       8
H              13.47710000      6.71130000      4.36758000     -0.02720250      0.01103520     -0.01845910       1
H              13.69150000      6.78263000      1.87137000      0.20951200     -0.03613120     -0.18115500       1
O              24.34170000      8.68999000     19.07280000      0.09969800      0.02770060     -0.09970190       8
H              -1.63490000      8.31793000     17.26230000      0.03568270      0.01688770      0.02498870       1
H              22.88840000      8.15562000     19.54580000     -0.13254700     -0.05709450      0.07552590       1
O              23.70160000      9.75299000      3.01144000      0.07609470      0.00067855      0.04334960       8
H              -0.75521600     10.94790000      2.08377000     -0.01233610      0.00004076     -0.01005440       1
H              -0.10869000      9.45413000      4.40790000     -0.06902350     -0.00517942     -0.03837240       1
O               1.54627000     -0.52785700     19.32440000     -0.10792500     -0.11512100     -0.06854720       8
H               2.67990000      0.41129500     19.94300000      0.12179000      0.11056600      0.07148840       1
H               2.53314000     23.62870000     18.52930000     -0.01482800      0.00545175     -0.00253126       1
O               1.18059000      0.08825800      2.48199000     -0.02407960     -0.09762960      0.14716100       8
H              25.35150000      0.69306000      3.79584000      0.03757380     -0.03326040     -0.03259420       1
H               0.90518200      1.33503000      1.50746000     -0.01230140      0.12707200     -0.11986600       1
O               5.34886000      4.16428000     19.52480000     -0.02503330      0.06588090     -0.00146127       8
H               6.26178000      3.09095000     20.51120000      0.03790440     -0.05008360      0.02790260       1
H               5.70289000      5.71724000     20.50410000     -0.01197810     -0.01937320     -0.02851790       1
O               7.32830000     21.26190000     11.43130000      0.00228439     -0.08141000      0.02736110       8
H               6.61124000     21.25160000      9.82146000     -0.00624736      0.02753320     -0.01754770       1
H               7.97191000     22.66030000     12.24980000      0.00299320      0.05225950     -0.01449990       1
O              20.57940000     15.44600000     10.35420000      0.00207532      0.02049620     -0.08746050       8
H              20.58090000     16.64600000      8.72386000     -0.01581370      0.00329400      0.04124640       1
H              21.84720000     14.54540000      9.33182000      0.01728130     -0.02755940      0.02704090       1
O              16.14480000     20.81670000     22.23470000      0.04012290      0.04753410      0.11227900       8
H              17.74630000     21.80570000     22.43330000     -0.03059580     -0.01878050     -0.02960380       1
H              15.76860000     20.31290000     20.67450000     -0.00501569     -0.01867720     -0.08697870       1
O              19.56780000      3.85616000     20.86470000     -0.11454700     -0.02372080     -0.11681300       8
H              18.43370000      5.29208000     20.48730000      0.01894720     -0.02484840      0.00366046       1
H              20.63120000      4.40485000     21.96180000      0.09226240      0.04550130      0.10917500       1
O               1.77512000     19.03440000      6.19185000      0.01863120      0.11815000     -0.01391470       8
H               1.43925000     17.42300000      6.27269000     -0.01896150     -0.11950300      0.00689359       1
H               2.66986000     19.36770000      4.64042000      0.00119984     -0.00468557      0.00095587       1
O               7.06134000      1.37696000      6.48899000      0.05046860      0.02625000     -0.00665533       8
H               6.69006000      3.77162000      2.27131000      0.03440440     -0.03863960      0.05343410       1
H               5.35422000      1.32472000      6.96980000     -0.02152640     -0.00476370      0.00697804       1
O               8.59177000      9.08232000      9.28260000     -0.02141470      0.02296720     -0.04599710       8
H               7.68968000      9.96909000      7.74669000      0.03594920     -0.03364000      0.04649500       1
H               9.98820000      8.00622000      8.70963000     -0.01712650      0.01398540      0.00452754       1
O              23.37200000      2.12019000     16.25510000     -0.15501300     -0.01365280     -0.03596240       8
H              21.69330000      1.53985000     17.26050000      0.07933540      0.02706280     -0.03022130       1
H              24.78730000      2.21089000     17.14810000      0.07100800     -0.00934688      0.06415760       1
O               5.69917000      5.15223000     14.12030000     -0.12372000     -0.09881660     -0.02483090       8
H               4.55132000      5.11203000     15.52730000      0.02063770      0.00753402      0.00019842       1
H               6.96262000      6.17175000     14.20800000      0.10471600      0.09217820      0.02220200       1
O              17.13300000     10.86980000     10.23250000      0.02997330      0.02667090      0.02424980       8
H              17.59590000     10.32830000     11.98630000     -0.01536110      0.01216820     -0.04051500       1
H              19.02930000     14.24850000     10.07480000     -0.01042390     -0.02473960      0.01373530       1
O               9.07891000     21.56700000     22.28170000     -0.07898590      0.05227370      0.04939590       8
H               9.30382000     20.98530000     20.72650000      0.00565779     -0.02316000     -0.09176560       1
H              10.55770000     21.20310000     22.99820000      0.07863040     -0.02249200      0.04681410       1
O              18.67600000      9.81952000     15.60940000      0.01016430     -0.08139690     -0.02904420       8
H              19.55080000     11.26270000     15.86580000      0.02497770      0.06869370      0.01792920       1
H              19.97630000      8.94584000     14.54210000     -0.02603340      0.01194620      0.01196950       1
O               4.05970000     20.67110000      1.21841000     -0.01094280     -0.00231214      0.00885322       8
H               5.59578000     21.55730000      1.46910000      0.01363780      0.00208868     -0.00363927       1
H               2.85933000     21.93610000      1.74110000     -0.00596783      0.00414835     -0.00421258       1
O               2.11374000      8.97732000      6.24236000     -0.03715140      0.12318100     -0.00357875       8
H               2.80263000      7.46874000      6.12593000      0.04450970     -0.10045100     -0.00037164       1
H               3.32061000     10.26200000      5.64167000      0.00206007     -0.01865130      0.00255844       1
O               8.19619000     16.06400000      7.43744000     -0.04393230     -0.09703330      0.08348150       8
H               8.42064000     17.17900000      6.27865000      0.00973361      0.11386700     -0.10185400       1
H               9.71253000     15.20100000      7.21696000      0.04181610     -0.02098210      0.01988940       1
O               7.55303000      6.25241000      1.93668000      0.01223500      0.01595350      0.01422030       8
H               9.20870000      5.87039000      2.74551000      0.00444340     -0.00796555     -0.00873571       1
H               6.16653000      5.20913000      1.42243000     -0.04383170      0.01647910     -0.04185520       1
O               3.28653000     20.82740000     15.18080000      0.01637330     -0.04106280     -0.03331850       8
H               4.45958000     19.92180000     13.95880000     -0.00695942      0.03260160      0.02706790       1
H               1.79063000     20.34620000     14.22680000     -0.01038280      0.01548100      0.00687553       1
O               0.70649300     13.55570000     17.44670000      0.03763540      0.01429080     -0.03476600       8
H               2.11908000     12.36210000     16.86460000     -0.04145800      0.03375320      0.00960679       1
H               0.92199500     15.17220000     16.43430000      0.00047896     -0.04284120      0.02319480       1
O              12.35490000     13.13320000     11.07250000     -0.11439700     -0.05031220     -0.00395631       8
H              14.07660000     13.34860000     11.31630000      0.04003320     -0.03500490      0.00389620       1
H              11.36870000     11.22410000     11.30130000      0.06736390      0.08534700     -0.00565208       1
