192
Lattice="25.38879 0.0 0.0 0.0 25.38879 0.0 0.0 0.0 25.38879" Properties=species:S:1:pos:R:3:force:R:3 TotEnergy=-1102.20319 cutoff=-1.0 nneightol=1.2 pbc="T T T"
O       15.30870000       9.78000000       1.66981000       0.16704400       0.00690238       0.08993910
H       14.35590000      10.78720000       0.89567500      -0.11982500       0.09638400      -0.08708500
H       14.96180000       8.15278000       1.75370000      -0.03909740      -0.09726220      -0.00879546
O       22.97070000       1.79821000      23.34670000       0.05897950      -0.05058140       0.01733560
H       23.16150000       0.26258100      24.52770000      -0.02455940       0.04406710      -0.02327310
H       21.41720000       2.60290000      23.04750000      -0.03247310       0.00238401       0.01089360
O       11.14080000      22.87410000      24.27830000       0.02910840       0.00237942      -0.04168700
H       10.54320000      21.21290000      23.73100000       0.00940474       0.01495690       0.01030210
H       12.70940000      23.13510000      23.19780000      -0.03777310      -0.01330550       0.02480720
O       10.16440000      10.54500000       3.31519000       0.03019330      -0.03005700      -0.11110600
H        9.65005000       9.46259000       4.46823000      -0.03555150      -0.08349430       0.06903910
H       10.12600000      11.93920000       4.19025000       0.00209603       0.11852200       0.05257590
O       14.13670000       0.20012000      18.23020000       0.03343850      -0.02650270       0.02098050
H       13.18260000       1.42436000      17.23930000       0.03679550      -0.00297883       0.00545490
H       16.08760000       0.14411000      18.25190000      -0.06524590       0.01806340      -0.02098870
O        2.43849000      19.11820000      24.31280000       0.04986020       0.08634370       0.06214560
H        2.35032000      18.82820000      22.63540000      -0.01381440      -0.03521660      -0.07320580
H        3.46075000      20.81530000      24.10210000      -0.03045550      -0.05317030       0.01872360
O        4.11774000      20.10810000      17.43850000      -0.03123740       0.03457590       0.03254360
H        5.49719000      21.36630000      17.70690000      -0.03250210      -0.02186760       0.00648372
H        2.74028000      20.26550000      18.90280000       0.06379590      -0.00207857      -0.05905510
O       21.69280000      17.76290000      17.74070000      -0.00289684       0.00221698      -0.04312560
H       22.56140000      19.12000000      18.53110000       0.00522507       0.01377650       0.01837340
H       22.28180000      18.06390000      15.97230000      -0.00576869      -0.01652350       0.02467940
O       14.16390000      18.61920000      23.36220000      -0.18895400      -0.01626680       0.24848900
H       14.92630000      17.49790000      25.04470000      -0.05151460       0.05775130      -0.07462340
H       15.33880000      18.38110000      22.45130000       0.23675700      -0.04503910      -0.19588900
O       14.49580000      13.52120000       9.44169000       0.09177650       0.00119670      -0.31057800
H       14.06310000      13.24540000      10.87080000      -0.07924200      -0.05745370       0.26622900
H       14.74090000      11.81470000       8.45496000      -0.00946514       0.05623720       0.04665130
O       24.06730000      13.24080000      18.04800000       0.06342730      -0.01418980       0.01899490
H        0.52291000      13.42420000      18.57520000      -0.04056020      -0.01711060      -0.01409160
H       23.58300000      14.87910000      18.57390000      -0.02337050       0.02002580      -0.00530216
O        3.49317000      23.62460000       6.20614000       0.05574430       0.13041400      -0.07661760
H        3.33727000      22.11760000       6.89977000       0.00990487      -0.09714590       0.05022400
H        5.33857000      24.25890000       5.79156000      -0.07256020      -0.03592600       0.02876640
O       24.52450000       2.54173000      12.16010000      -0.03716940      -0.09800370      -0.00623727
H       24.75060000       0.92743800      13.21900000       0.00356706       0.05852390      -0.02803540
H        0.24191000       3.80462000      12.53760000       0.02922910       0.04043320       0.03670700
O       18.59180000       4.44064000      22.53720000      -0.06588890       0.00709471       0.02889690
H       18.52510000       5.28699000      20.98650000       0.01847940       0.01669420      -0.03315010
H       16.80010000       4.96716000      23.05390000       0.04283540      -0.02178440       0.00459562
O       19.39140000       1.58496000      10.42520000       0.02960420       0.03650540       0.04222520
H       19.63390000       0.96778500       8.77357000       0.01374220       0.00055625      -0.01602360
H       20.97830000       2.61763000      10.96030000      -0.04184890      -0.03460280      -0.02245190
O       11.36170000      15.48280000       5.75081000      -0.16645700      -0.12390100       0.06804340
H       12.68590000      14.97740000       6.62376000       0.07962430      -0.04421050       0.07547150
H       11.98190000      16.60250000       4.86152000       0.07641990       0.16872400      -0.14207400
O       20.06390000      18.76410000       1.51018000      -0.06751930      -0.01332970      -0.05639950
H       21.39490000      18.87400000       2.57368000       0.05928460      -0.00600321       0.03960620
H       20.34410000      17.48900000       0.17097500      -0.00494349       0.01955500       0.02124960
O        6.78677000      14.82440000      12.74310000       0.00555430       0.08521430      -0.01909250
H        6.31309000      18.14030000      13.93220000       0.02205280      -0.06418920      -0.01716640
H        7.00904000      15.37080000      10.81650000      -0.01796210      -0.01731120       0.06337020
O       24.87810000      17.79320000       3.56870000       0.04523560       0.06038320      -0.04178630
H        0.60681000      18.26220000       2.04228000      -0.02256650      -0.00015520       0.03520590
H       24.24170000      16.37170000       2.82639000      -0.02171220      -0.06175220      -0.00902056
O        4.27056000       5.01236000      10.24440000       0.01820600       0.00523151       0.01462930
H        5.20949000       4.00208000      11.33750000       0.04749930      -0.00669347       0.01981060
H        2.93689000       3.88611000      10.30990000      -0.06190020      -0.01325970      -0.03169380
O        5.70049000      23.61270000      21.27580000       0.02037720       0.07919360       0.01447350
H        4.74821000      25.34590000      20.94970000       0.03086320      -0.05804910       0.00713846
H        7.38616000      24.45590000      21.80310000      -0.04465700      -0.03283080      -0.01354900
O       19.63450000      24.32510000      16.17520000       0.09716720       0.04427470       0.00464603
H       20.68990000      24.50530000      14.59260000      -0.04051430      -0.00972807       0.01943960
H       21.10950000      25.12460000      17.24760000      -0.05344890      -0.02641230      -0.01897850
O       24.94110000       6.58981000      15.37170000       0.01452760       0.04117760       0.05563430
H       24.69650000       8.19395000      14.45400000      -0.00285712      -0.01723290       0.01006230
H       25.31120000       7.20552000      17.22490000      -0.01275370      -0.01962500      -0.06600420
O       23.65990000      23.26190000       1.65669000       0.05218430      -0.01521250       0.07027340
H       25.36440000      23.28610000       2.84600000      -0.07059120       0.00233354      -0.04769830
H       22.46210000      22.30190000       2.76393000       0.02406670       0.02108420      -0.02508280
O        0.44309500      25.20922500      19.43770000      -0.13902600      -0.19247500       0.01687310
H       24.90903500       0.78785600      20.54930000      -0.05766960       0.01531320       0.04934160
H        1.43096000       0.95355300      19.17590000       0.19775900       0.18868800      -0.06878830
O       23.64660000      20.98540000      21.00160000       0.01068400       0.02707680       0.01796770
H       22.13390000      21.82560000      21.68560000       0.02689620      -0.00733482      -0.00586614
H       25.13780000      22.14580000      21.27590000      -0.04193890      -0.01944340      -0.00686106
O        7.74751000      13.71500000      22.50380000       0.06124170       0.01273570      -0.01908770
H        7.78877000      11.94230000      22.54650000      -0.02536530      -0.03116460       0.00923126
H        9.53973000      13.81890000      21.84330000      -0.03444820       0.01877930       0.01381060
O       14.40170000       2.93769000      13.19370000      -0.07180350      -0.08624430      -0.20727900
H       15.78140000       2.38435000      11.96860000      -0.03140230       0.01112600       0.02821400
H       15.17830000       3.50974000      14.42330000       0.10911200       0.07995240       0.17396900
O       25.33512600      17.78120000      13.92960000       0.02372300       0.03711860       0.05220210
H        0.04925600      18.31100000      12.30340000      -0.01165230      -0.00446179      -0.08692310
H        0.99075500      19.30260000      14.36120000      -0.00913785      -0.03157290       0.02713260
O        1.41704000       9.19500000       6.32000000      -0.00278888       0.03645680       0.01011670
H        1.22517000      10.99930000       6.98197000       0.01318070      -0.05490410      -0.01075880
H        3.01711000       8.50378000       6.92240000      -0.00698599       0.01915320      -0.00216642
O       15.43720000      20.11840000      10.56040000      -0.02341220      -0.05533820       0.06107280
H       14.27890000      18.57860000      10.41320000       0.03237560       0.03429420      -0.00152705
H       15.77840000      20.03600000      12.50600000      -0.00429712       0.01038450      -0.05467230
O       15.78920000       9.48034000      17.08510000      -0.02867620      -0.10946800       0.03363930
H       14.24350000       8.37086000      16.74460000       0.04103020       0.02864500       0.01516640
H       15.47790000      10.93090000      16.29930000      -0.02047590       0.08131610      -0.04429240
O       11.01870000       0.95121900       2.53827000      -0.11334600       0.18505900      -0.16526200
H       11.72290000      25.23325800       3.30526000       0.13604900      -0.20341400       0.15969100
H       11.44230000       0.30612900       0.80996800      -0.03200190      -0.00442102       0.02237560
O       19.96760000       9.13323000      20.13380000       0.09533540       0.00699060      -0.03863250
H       18.51270000      10.06760000      20.28930000      -0.03860390       0.02570630      -0.00925374
H       21.17380000      10.08090000      18.81220000      -0.04929500      -0.02969660       0.05036710
O       25.31390000      12.39700000       2.17067000      -0.03253690       0.06901270      -0.04119680
H        0.85581000      11.25430000       2.97785000       0.05397710      -0.06090010       0.05417690
H       24.09530000      11.41800000       1.31293000      -0.02118640      -0.00411456      -0.01034160
O       14.74680000      19.34570000       2.77631000      -0.02079690      -0.00324753       0.01979610
H       14.38950000      20.57050000       4.15962000       0.03033200      -0.01447400      -0.02795540
H       16.48880000      19.08160000       2.24206000       0.00151011       0.02110130       0.02464000
O        2.49273000       4.83452000      24.68730000       0.07367570       0.17229200      -0.00022064
H        2.03160000       3.32975000      24.77980000      -0.08918250      -0.19013300      -0.00646420
H        3.90615000       4.54396000       0.38761000       0.01692330       0.01562520       0.01128800
O       12.56460000      13.11090000      14.68190000       0.10053100       0.07445580       0.12799800
H       11.31620000      12.42230000      13.91390000      -0.12387300      -0.06067160      -0.06918280
H       11.94370000      13.56480000      16.51150000       0.02328580      -0.01008480      -0.06407930
O        7.93714000       0.92668300       8.62473000      -0.23268200       0.07278610       0.32136900
H        8.66408000       0.30066700      10.30090000      -0.01179940       0.01235280      -0.04994640
H        8.88994000       0.58465800       7.57244000       0.25595800      -0.08651600      -0.26901500
O        7.00064000       6.56000000      16.01690000      -0.08411110      -0.04091890       0.29697100
H        5.78001000       7.70460000      15.65310000      -0.06008280       0.06512630       0.00519310
H        7.59936000       6.47218000      14.65870000       0.15001600      -0.02894620      -0.30125300
O       20.13410000       0.75542600       4.97008000      -0.04316740       0.03146890      -0.08373470
H       20.20600000       0.68705100       3.03239000       0.02791100      -0.02880260       0.04153790
H       18.95550000       2.16194000       4.45239000       0.01403630      -0.00486721       0.04506080
O       11.47680000      16.01870000      19.18810000      -0.04225920       0.04718400       0.01432840
H        9.59522000      16.15680000      18.85800000       0.03996930      -0.00369046       0.00957872
H       11.82990000      17.66790000      20.14510000      -0.00273385      -0.04754630      -0.02084300
O        3.32655000      10.04050000      23.73730000       0.00130165      -0.02688790       0.01148560
H        2.91113000       8.22674000      24.17550000      -0.00373149       0.04718130      -0.00401648
H        2.59030000      11.24450000      24.94340000       0.00388615      -0.02016560      -0.01144270
O       16.61840000      20.16000000      16.23830000       0.00880447      -0.10380500      -0.11885000
H       17.06950000      20.56580000      17.80550000       0.03088190       0.02140040       0.07956060
H       17.76590000      18.49630000      15.75070000      -0.04432340       0.07265780       0.03386550
O        6.60686000       9.13847000       8.76000000      -0.03925530      -0.05400570       0.01600860
H        5.44176000       6.84642000       9.62289000       0.02950510       0.07173450      -0.03276860
H        8.38065000       8.87262000       8.99967000       0.00181202      -0.00525954       0.00389027
O       24.13210000      11.23290000      11.49400000       0.02517370       0.08298130      -0.00407965
H       23.45530000      12.22230000      10.00110000       0.01006800      -0.02973950       0.03487120
H       25.01130000      12.73700000      12.45460000      -0.03114770      -0.04974190      -0.02445700
O       20.50970000       5.92897000       3.91585000       0.11373200       0.07662770      -0.02727170
H       20.58910000       7.63781000       2.96943000      -0.02296110      -0.04450450       0.01961660
H       22.63760000       6.15521000       4.06544000      -0.08971910      -0.02904150       0.00630465
O        5.62994000       3.04378000      20.12660000      -0.01046990       0.02353040       0.10030100
H        5.77340000       3.67753000      18.55720000       0.00963755       0.03180120      -0.07723110
H        5.55758000       4.62490000      21.23550000      -0.00280245      -0.04456430      -0.02719640
O        4.54276000      10.72140000      15.08440000      -0.08069220      -0.04070770      -0.07055790
H        5.39386000      12.24300000      14.74910000       0.01675380       0.02883120      -0.01631780
H        3.35645000      10.48790000      13.32150000       0.05750920       0.01425400       0.08009450
O       20.90010000      10.72410000       0.08751000      -0.00091816       0.14966400       0.13816200
H       20.85280000       9.55164000      24.42000000      -0.00756132      -0.14897500      -0.14401200
H       19.22590000      10.89880000       0.78891000      -0.00051846      -0.00400805      -0.00083306
O       13.14100000       5.32604000       0.23861000       0.08207340      -0.12391200      -0.01689070
H       12.66210000       2.34932000      25.22410000       0.01860680       0.11479200       0.01941790
H       11.54150000       5.93563000       0.26291000      -0.07546750       0.01772860      -0.00674906
O       11.83530000      23.35790000      12.03150000      -0.06467700       0.00963454      -0.00953657
H       13.17350000      23.65370000      13.05590000       0.04657310       0.03167350       0.05361920
H       12.72790000      22.31040000      10.94850000       0.00850817      -0.02946950      -0.03708790
O        9.09171000      19.67460000      15.54090000      -0.15723600       0.30549700      -0.10252600
H        9.90285000      18.50470000      15.99100000       0.18388300      -0.24952500       0.09102100
H       10.20140000      21.28740000      15.30300000      -0.03249040      -0.05703800      -0.00034382
O       19.26500000      15.88650000      22.61750000      -0.00635950      -0.08067750       0.03129960
H       19.65480000      14.00860000      23.11110000      -0.03134810       0.04420250      -0.01419280
H       20.99580000      16.15000000      22.53460000       0.04271310       0.02990290      -0.02243000
O        1.80537000      18.68660000       7.87080000       0.04503280      -0.02641620      -0.04057920
H        3.03025000      17.21890000       7.41251000      -0.02741120       0.03465070       0.02829110
H        1.59376000      19.21310000       6.08297000      -0.01549130      -0.00933285       0.02998200
O        5.95108000       1.77446000       2.18921000      -0.17620900      -0.00269721      -0.13681600
H        5.48433000       0.10680900       1.46566000       0.01157040       0.03049030       0.01397940
H        7.17786000       1.55718000       3.15572000       0.16108600      -0.02488630       0.11527200
O       16.19570000       8.04272000       6.71987000      -0.08338390      -0.09293000       0.12880800
H       16.79400000       9.18254000       5.79265000       0.06823050       0.13899500      -0.10803800
H       16.61220000       6.59325000       5.88366000       0.01633880      -0.04880710      -0.02067520
O        9.27887000       7.98489000      24.67440000      -0.05840710      -0.02466070      -0.03004270
H        9.62392000       9.24530000       0.48171000       0.00616690       0.02635530       0.02425830
H        7.40157000       7.79321000      24.82960000       0.03618410       0.00649303      -0.00511390
O        3.60033000      16.21150000      20.08640000       0.02842150      -0.02278260       0.04920660
H        4.19710000      15.80190000      18.37880000       0.00542952       0.00573379       0.02929520
H        4.91182000      15.80940000      21.58940000      -0.04022050       0.00049511      -0.07172040
O       18.94990000       8.84090000      12.40200000      -0.07706080      -0.04541680      -0.00222421
H       17.03690000       8.99206000      12.80700000       0.05999280       0.00953286      -0.00435072
H       18.75390000       7.01658000      11.90250000       0.01962090       0.03430380       0.00481840
O        5.87418000      15.08020000       7.80655000       0.10855700       0.12475300      -0.05701000
H        5.84207000      13.43140000       8.00481000      -0.00639860      -0.12177300       0.01483110
H        8.13762000      15.30710000       7.02822000      -0.09054910      -0.00573063       0.02554060
O       15.13330000      23.35260000       6.55018000       0.05731940       0.11335500      -0.06120860
H       15.29960000      22.07650000       7.61125000       0.00805692      -0.08062110       0.07409590
H       16.94170000      24.22650000       6.77463000      -0.06785090      -0.03057290      -0.01922970
O       11.68790000       7.50946000       9.68052000       0.02094400      -0.01189270      -0.06471320
H       12.79150000       6.91219000       8.15901000      -0.03127180       0.02358070       0.05192840
H       12.59760000       7.01573000      11.12170000       0.01304840      -0.01119210       0.01549190
O       12.54850000       5.05116000      17.51030000      -0.04328680      -0.00725154       0.03022690
H       11.58830000       4.76750000      19.12910000       0.02809080       0.01138290      -0.02557450
H       11.13980000       4.86534000      16.36220000       0.00762569       0.00580398      -0.00325783
