192
Lattice="25.3499 0.0 0.0 0.0 25.3499 0.0 0.0 0.0 25.3499" Properties=species:S:1:pos:R:3:force:R:3 TotEnergy=-1102.17467 cutoff=-1.0 nneightol=1.2 pbc="T T T"
O       16.73820000      22.12570000      14.19110000       0.07642700      -0.00615863      -0.03484800
H       17.95550000      20.91710000      13.33490000      -0.04516070       0.00484769       0.02091410
H       18.10730000      23.40070000      14.43370000      -0.04042840      -0.00020764       0.00385403
O       19.58020000       2.95363000      22.25550000       0.09032710       0.00674532       0.04689340
H       21.19250000       2.84326000      23.98800000      -0.06485730       0.00653311      -0.08326090
H       20.62300000       3.69484000      20.82410000      -0.02272210      -0.01804450       0.04526170
O       17.69970000      22.67630000      22.27980000       0.11968200       0.02243180       0.09730650
H       16.59030000      22.22760000      21.20910000      -0.11645700      -0.06885670      -0.11916400
H       17.04850000      24.26810000      22.58900000      -0.00214581       0.04838300       0.01283830
O        7.29069000       5.14524000       4.26455000      -0.08843680       0.06502130       0.04049970
H        8.54350000       4.26652000       3.68640000       0.10655700      -0.09307840      -0.03125380
H        7.69247000       6.56483000       3.26847000      -0.01654470       0.03191720      -0.00306048
O       21.76850000      13.05670000       3.25587000      -0.00699454      -0.03360250      -0.00744279
H       21.75440000      11.73580000       1.94613000       0.00175946       0.01699440       0.01873090
H       21.66920000      14.52660000       2.26241000      -0.00494954       0.00925831      -0.00976748
O        1.49517000      23.96830000      22.10240000      -0.00012176      -0.06123950      -0.01245460
H        2.46335000      24.86940000      20.88240000       0.01724190      -0.00188860      -0.02518910
H        0.68590100      25.07596800      23.15990000      -0.02767150       0.03750020       0.03634430
O       21.67310000      10.34550000      16.94010000       0.05756130       0.10217000       0.04280630
H       20.71510000      12.21490000      18.25570000       0.03486810      -0.07899330      -0.06420130
H       23.78570000      10.90630000      16.61380000      -0.09131460      -0.01987330       0.02149080
O       18.96670000       7.01962000       3.70423000       0.13571600      -0.04563690       0.10685200
H       18.84980000       5.29027000       4.32406000      -0.00116868       0.01902100      -0.00510916
H       17.68240000       7.33477000       2.80382000      -0.14168600       0.03066470      -0.10428000
O       24.06800000       5.84714000       9.45044000      -0.03530500       0.07864670      -0.11655700
H       24.48950000       4.95694000      10.73000000       0.03149000      -0.08305460       0.13561200
H       24.73100000       4.86119000       8.11368000      -0.00122528      -0.00686986      -0.01788650
O       24.84956600      20.25600000       8.60692000       0.27688300       0.13194900       0.09590040
H       24.49980000      19.79160000      10.17470000      -0.04805980       0.00209377       0.15392700
H       23.65060000      19.78500000       7.86845000      -0.27282300      -0.11435400      -0.19133600
O        8.61215000      16.04920000      11.07010000       0.18320200      -0.01749560       0.07529440
H        8.69001000      16.23920000       9.42289000       0.01582270       0.01792570      -0.11285800
H        7.04690000      15.95740000      11.31580000      -0.20578700      -0.01796290       0.03533370
O       11.87330000      10.60720000      10.50890000      -0.05424500       0.07368110       0.00568989
H       12.36340000      10.65930000      12.20850000       0.02587070      -0.02227440       0.03349590
H       10.75500000      12.24520000      10.93380000       0.02510800      -0.04628530      -0.03752500
O       14.80300000      21.83450000       8.73912000       0.04068700      -0.05411860      -0.11086300
H       14.93020000      22.48200000      10.29440000       0.01544860       0.02422840       0.08266990
H       16.44460000      20.88710000       8.25585000      -0.05448560       0.02950380       0.02721960
O        7.97015000       7.40046000      20.12910000      -0.04047720       0.01734060       0.05462610
H        7.48949000       5.75229000      20.91640000       0.01677240       0.01834570      -0.01534490
H        7.10839000       8.64118000      21.37760000       0.02643940      -0.02899660      -0.04388500
O       11.80710000       2.51882000       3.26174000      -0.00115962      -0.07557290      -0.01026970
H       13.53670000       2.13526000       3.68591000       0.00678292       0.01872490       0.00648167
H       11.37680000       0.62367700       3.04759000      -0.00179596       0.05081960       0.00302980
O       14.68390000       1.93214000      19.17060000      -0.09342840       0.05529880       0.07621310
H       16.02720000       1.28782000      18.48780000       0.11142000      -0.05265260      -0.05160520
H       13.63110000       2.27864000      17.80100000      -0.02556490       0.00022451      -0.02003990
O       19.40480000      17.05940000      13.71990000      -0.06709620      -0.04272330      -0.01504830
H       20.80310000      18.02190000      13.80890000       0.07279100       0.03372620       0.01376660
H       19.33280000      15.95010000      15.17410000       0.00015521       0.00738812       0.00127528
O        1.76447000      12.65380000      15.68110000      -0.07996070       0.07884180       0.05836020
H        0.16407300      13.49810000      15.04190000       0.05780830      -0.02925200      -0.00559487
H        2.65137000      11.39230000      14.96040000       0.01976860      -0.05117980      -0.05206480
O       23.09400000      18.57440000       3.35398000       0.07381820       0.03902320      -0.20428900
H       22.61560000      17.72490000       4.59982000      -0.06553730      -0.10582800       0.16013100
H       23.66010000      17.05930000       2.10963000      -0.00801750       0.06657740       0.04392220
O        6.78010000      22.88170000      24.34730000      -0.00669274      -0.04404340      -0.03780250
H        7.70006000      23.80780000       0.07410000       0.07697260       0.03076470       0.04987310
H        5.42395000      23.90650000      24.69320000      -0.06604600       0.01352690      -0.01149550
O        9.10575000      17.70320000      15.85270000      -0.00359794       0.09060490      -0.00772428
H        8.64700000      17.18330000      14.19670000       0.00202041      -0.01626540      -0.01295760
H        8.89783000      19.69320000      15.40620000       0.01126580      -0.07618430       0.03107380
O        6.16240000      10.57260000       1.88465000      -0.01573120      -0.02266940      -0.06484320
H        7.91198000      10.45070000       1.62120000       0.02149880       0.00862981       0.00952452
H        5.77538000      11.15620000       3.45346000       0.00002952       0.01710550       0.05541840
O        6.80373000       7.07776000       9.86648000       0.03903250       0.01815740       0.01058280
H        7.56895000       6.22663000       8.43944000      -0.00938772      -0.00394688      -0.00070575
H        8.31163000       8.07357000      10.45920000      -0.02969650      -0.01239920      -0.00956832
O        1.46289000       3.29932000      15.95110000      -0.04652770      -0.03179430       0.00861132
H        0.17667900       3.41766000      17.32720000       0.03676100       0.01820750      -0.02328390
H        2.70049000       4.60285000      15.86120000      -0.00104410       0.01707210       0.01461540
O       11.95700000      11.75540000      16.83940000      -0.00485757      -0.00800322       0.00221319
H       10.55790000      11.80950000      17.96340000      -0.01245100      -0.02213970       0.01044230
H       11.97540000      13.51210000      16.66190000       0.01361030       0.03755530      -0.01885720
O        4.36431000      24.28720000      17.44480000      -0.09690830       0.03188660      -0.01848400
H        2.26041000      25.18112900      16.78670000       0.10469800      -0.03301440       0.02120470
H        4.16225000      22.32530000      17.12260000       0.00108418      -0.00004529       0.00201983
O       23.94980000       6.22600000      20.24700000      -0.05163410      -0.06342460      -0.02230080
H       22.57560000       6.13352000      18.92710000       0.04027210       0.02900930       0.02610230
H       24.91568400       7.68989000      20.20400000       0.00929232       0.03399950      -0.00749808
O       18.92040000       1.06126000      16.05380000      -0.00168385      -0.02118370       0.00109619
H       20.13990000      25.20620300      16.75820000      -0.00034563       0.03340250       0.00088703
H       19.21370000       2.81539000      16.40140000       0.01256130      -0.00466788      -0.00298126
O       22.37460000      22.89950000      18.51540000       0.20174000      -0.00865635      -0.07493350
H       23.72230000      22.45120000      19.82690000      -0.02928330       0.02264230      -0.04887880
H       21.10880000      22.84460000      19.44600000      -0.18204300      -0.00766057       0.12152700
O        1.19851000       9.52161000      23.37660000      -0.01860860      -0.01276600       0.05235060
H        0.52841400       8.92931000      25.21730700       0.04945780       0.02196020      -0.06940740
H        3.02047000       9.87906000      23.26350000      -0.02512390      -0.00417546       0.01857440
O       13.28920000      21.78830000      18.05260000       0.21416600      -0.24766500       0.02042020
H       12.33270000      22.92010000      17.92080000      -0.21690100       0.25265000      -0.02153680
H       14.09090000      21.72060000      16.40800000       0.00446403      -0.00708929       0.01010650
O        2.07642000       8.66565000       7.02852000       0.00141517      -0.01751780       0.02483290
H        1.07488000       7.87562000       8.36058000      -0.03615000       0.01265620      -0.01615660
H        3.43053000       8.19580000       8.12850000       0.04476550       0.01284840      -0.01396750
O       14.02150000      16.22300000       5.56058000      -0.02671980       0.02546850      -0.03016050
H       15.14610000      15.32890000       6.50854000       0.03712100      -0.02702910       0.04129840
H       15.11740000      17.30160000       4.58771000      -0.00882612      -0.00524622      -0.00198579
O        4.90793000      22.71710000       9.11166000       0.28090200       0.11643000       0.11433500
H        4.66421000      24.53010000       9.23871000       0.01882080      -0.00778153       0.00674081
H        3.56458000      22.34630000       8.59835000      -0.29826900      -0.10222500      -0.11763100
O       17.27190000      14.59320000      22.93880000      -0.00705218      -0.00809239       0.06509250
H       16.77420000      15.36680000      24.68610000       0.00652087      -0.01310350      -0.05801770
H       17.23250000      12.74710000      23.31500000       0.00002866       0.02100310      -0.01028040
O       17.57270000      10.02350000       8.44106000       0.04115850      -0.02827370      -0.03845940
H       17.47630000       9.09436000       6.81192000       0.02486490       0.00178020       0.02268000
H       15.98280000      10.66110000       8.31020000      -0.06701330       0.02914150       0.01960320
O        4.63783000      17.11910000       2.53549000      -0.06851730       0.00262225       0.08384520
H        5.13697000      15.71740000       1.56651000       0.00134935      -0.02526450      -0.00461200
H        2.90228000      16.23920000       4.41502000       0.05730830       0.00768444      -0.07026510
O       19.75320000      15.76230000       8.49384000      -0.03256750      -0.07719620       0.01776830
H       19.55470000      15.82570000      10.44970000       0.00288096      -0.00304527      -0.04593090
H       19.09680000      13.78610000       7.97378000       0.03463880       0.08216170       0.02817170
O       20.26110000       6.70818000      13.15780000       0.06240120      -0.00369271       0.03431730
H       19.52400000       7.79942000      12.00600000      -0.02176470       0.02163060      -0.02803080
H       21.94450000       7.59598000      13.45960000      -0.04775280      -0.02357080      -0.00237269
O        1.14102000      13.66980000       5.61149000       0.15550400       0.05273370       0.02392890
H       24.95897100      13.32880000       5.25079000      -0.16354600      -0.02548390      -0.03285130
H        1.96172000      12.28740000       4.81839000       0.01390230      -0.01165200       0.00564749
O       17.61050000      13.96710000      17.84550000       0.08368140       0.11465200       0.23438900
H       16.79950000      13.34630000      16.64730000      -0.12138800      -0.08633580      -0.14150000
H       16.45100000      14.56650000      19.78470000       0.04865560      -0.02920280      -0.08620150
O       20.45280000      23.46190000       2.02105000       0.07422660      -0.10823000       0.08275640
H       19.51900000      23.87460000       0.69453000      -0.05381550       0.01573340      -0.08311770
H       20.89930000      21.42260000       1.89932000      -0.01502150       0.08899170       0.00272091
O       24.40190000       1.64115000       0.80423300      -0.00897054      -0.08034480      -0.10080800
H       24.58990000       2.87395000       1.86030000       0.01948360       0.11511800       0.08205850
H       23.63720000       0.42259500       1.82467000      -0.01610530      -0.02949070       0.01368550
O       10.84070000       1.32887000      10.24950000      -0.03232050      -0.00895379       0.09531150
H       12.26370000       0.99510000      11.33890000      -0.01424090      -0.00170478       0.01793980
H       11.78210000       1.43524000       8.89052000       0.04814710       0.01223690      -0.11265800
O       17.09530000       1.37860000       6.29820000       0.02717690       0.19665800      -0.01985710
H       16.56880000      25.29437100       6.66655000      -0.07463220      -0.19133900       0.05515900
H       18.33990000       1.13884000       5.13836000       0.04624260      -0.01050910      -0.03813780
O        3.81274000      19.41520000      16.77940000      -0.25395500       0.13448500      -0.00508065
H        2.71438000      17.84390000      21.32040000      -0.05927870       0.06639120      -0.03276010
H        5.18945000      18.76590000      16.88880000       0.23842300      -0.11781300       0.01145670
O        7.87391000      18.81120000       7.04084000       0.03256390      -0.00869897      -0.03292280
H        6.56694000      18.18180000       5.91763000      -0.00502591       0.01200540       0.02125630
H        7.58579000      19.54820000       8.66113000      -0.02524240       0.00248735      -0.00805305
O       24.29960000      19.13220000      14.63400000       0.01156380       0.05444980       0.01696650
H       23.77120000      20.63540000      15.65770000      -0.00566610      -0.02834270      -0.01721890
H        0.79624000      19.39900000      15.06470000       0.00446254      -0.02843960      -0.00614748
O        5.64090000      13.07540000      20.69620000       0.00567180       0.00190094      -0.00215555
H        6.12693000      14.37960000      21.91670000       0.00259305      -0.00535260      -0.02449120
H        5.97170000      13.60850000      18.93760000      -0.00777360       0.00449363       0.02920200
O       13.64540000       7.63773000      20.48080000      -0.04626540       0.00642779       0.00040364
H       14.09680000       5.96717000      19.94360000       0.00177715      -0.00457642       0.00120845
H       11.75330000       7.78125000      20.19170000       0.04002580      -0.00767644       0.00268883
O       24.24420000       7.04142000       2.82976000       0.00683672      -0.00698818      -0.07764290
H       23.00210000       7.71562000       1.63351000       0.00719310      -0.02128380       0.00721320
H       23.59785000       7.71661000       4.26665000      -0.01460250       0.02247520       0.06416260
O       24.58790000       0.21105700       6.19102000       0.00905095       0.00070543       0.00537997
H        1.05679000       0.55766600       6.30330000      -0.01406930      -0.00974389      -0.00850099
H       24.40800000      23.77920000       5.85033000       0.00708814       0.01277040      -0.00075486
O        8.07501000      17.94750000      22.37420000      -0.03874900      -0.03810080      -0.01988310
H        9.64384000      17.61570000      21.69070000       0.03447070      -0.01042380      -0.02840620
H        8.44939000      19.04330000      23.64220000      -0.00146562       0.04429930       0.04504540
O        9.96750000       0.82289000      16.71590000      -0.07917800      -0.01000690       0.04689160
H        9.10236000       1.90028000      15.55710000       0.00632566       0.00495882      -0.01591600
H        8.21575000       0.42822100      17.75460000       0.06167700       0.00060222      -0.03949870
O        0.72906900      18.87250000      21.08490000       0.06119310      -0.01381860       0.03767250
H       25.30090000      17.58780000      22.17930000      -0.02029640       0.01329550       0.00042756
H        0.53883200      21.06490000      21.71160000       0.03967720      -0.04907770      -0.00611266
O       23.46210000      14.11980000      23.56040000      -0.09887950       0.14219200       0.08027340
H       24.17110000      12.92340000      22.65990000       0.03347590      -0.08977530      -0.07318780
H       21.62930000      14.82920000      23.27040000       0.06168500      -0.04433300      -0.01344660
O       15.17960000       9.46371000      25.03593600       0.00703727       0.06382860       0.04495740
H       14.23980000      11.09010000      25.29775900       0.01487940      -0.03534420      -0.00231732
H       14.18110000       8.60882000      23.86870000      -0.01601680      -0.02505270      -0.03960250
O        4.61621000       7.66414000      15.32770000      -0.14821400      -0.03658160      -0.23097000
H        5.63968000       7.73028000      16.46420000       0.17618700       0.01580610       0.20638600
H        5.59888000       6.88026000      13.89360000      -0.02472340       0.02066350       0.02149350
O       11.86090000      11.68670000       3.82865000      -0.08684700       0.01817560      -0.01674370
H       13.29000000      10.82910000       3.78610000       0.08234800      -0.06547710      -0.00831446
H       12.35660000      13.06230000       4.79474000      -0.00299421       0.04310560       0.01864070
O        4.04784000       0.81117300       3.84368000       0.06173800      -0.09230290       0.09139250
H        3.26927000       1.79464000       2.75811000      -0.02578100       0.06900390      -0.07789900
H        5.89751000       0.53363700       3.81903000      -0.04002000       0.02097060      -0.00934106
O        3.20394000      15.93640000      10.76960000       0.00941949       0.05514200      -0.02300170
H        0.75926500      18.91180000       8.93432000       0.06722200      -0.05573320      -0.02641890
H        1.93342000      14.74060000      10.84890000      -0.02400640      -0.02848650       0.00071353
O       15.51760000      18.74010000       1.00050000       0.13948100       0.00487078       0.01791040
H       17.33220000      19.56930000       1.89530000      -0.08156950      -0.03813710      -0.05094450
H       14.43830000      19.66260000       1.98722000      -0.04787950       0.03506660       0.03073110
O        8.96390000       2.65008000      22.28680000      -0.24396300      -0.07865270      -0.13668600
H        9.65141000       1.39398000      21.11780000      -0.02688540       0.00398347      -0.00513354
H       10.31930000       2.89212000      22.88890000       0.27353100       0.07520660       0.14622000
O       11.68250000      21.44740000       3.22347000       0.03607110       0.02069730      -0.09350920
H       10.78060000      20.58140000       4.32951000      -0.05654860      -0.03997610       0.11227800
H       11.10620000      20.24810000       1.93785000       0.00863312       0.02282890      -0.01467770
