192
TotEnergy=-1103.55526000 cutoff=-1.00000000 nneightol=1.20000000 pbc="T T T" Lattice="24.68338000       0.00000000       0.00000000      -0.00000100      24.68338000       0.00000000      -0.00000100      -0.00000100      24.68338000" Properties=species:S:1:pos:R:3:force:R:3:Z:I:1
O              23.43250000      1.65514000    -31.45050000      0.12955700      0.08116540     -0.02911470       8
H              24.27940000      2.78171000    -30.15320000     -0.02782950     -0.03459000     -0.02188400       1
H              22.08250000      0.88567200    -30.90820000     -0.10434800     -0.04978930      0.05106150       1
O              51.10680000     48.17170000      5.07161000      0.05849480     -0.02024710      0.07907500       8
H              52.80790000     47.11380000      5.76553000     -0.05347920      0.03029820     -0.02970950       1
H              51.17480000     48.01370000      3.34343000      0.00142641     -0.00823940     -0.05351150       1
O              13.03770000     -1.17742000     13.39150000      0.01249900      0.03072410      0.00898553       8
H              13.71750000      0.08387700     14.65400000     -0.02291180     -0.04296710     -0.02075350       1
H              12.14420000     -2.63772000     14.06730000      0.00971151      0.01266910      0.01229380       1
O              -6.08029000     -8.97657000      0.62112100     -0.03869530      0.03124230      0.04544120       8
H              -5.52707000     -8.82845000     -1.08820000      0.00540066      0.00113737     -0.02078440       1
H              -7.21537000     -7.45566000      0.99805200      0.02254640     -0.03150590     -0.00446657       1
O               7.81330000     29.79810000     20.20600000      0.04726170      0.02493540      0.01393540       8
H               6.92502000     30.82590000     21.45830000      0.00593025     -0.00475577     -0.00020993       1
H               9.70853000     30.43040000     20.18020000     -0.04716630     -0.02250890     -0.00894559       1
O              -4.10517000     11.90910000     12.22320000      0.02894500      0.00610807     -0.00946476       8
H              -4.71395000     10.80220000     10.88250000     -0.00939306     -0.00685916      0.00189455       1
H              -2.50184000     12.54590000     11.46670000     -0.01481720      0.00632009      0.01544130       1
O              47.58310000     25.41460000     12.05820000     -0.01822390     -0.03863870     -0.07369880       8
H              48.35350000     26.09820000     10.46630000     -0.00785400     -0.00212794      0.03562200       1
H              46.72810000     23.91110000     11.10700000      0.02073110      0.04082380      0.03678550       1
O              -1.78244000    -29.68610000     11.62940000      0.00383486     -0.00150287     -0.00482874       8
H              -0.90999100    -31.26290000     11.48800000      0.00550116     -0.01704120      0.01089070       1
H              -1.78648000    -29.20650000      9.86481000     -0.00959652      0.01108770     -0.00261228       1
O              28.29570000    -34.89080000     19.56240000      0.03575530     -0.07288950      0.02430540       8
H              27.82740000    -33.21780000     19.55660000     -0.00239835      0.04961360      0.00464980       1
H              29.77220000    -35.20920000     20.75090000     -0.02768620      0.02084360     -0.02856880       1
O               8.39739000    -27.57600000    -27.59470000     -0.00069052     -0.00619855      0.01012810       8
H              10.13790000    -27.05980000    -27.55700000      0.00842028      0.00068081     -0.00279300       1
H               8.13891000    -28.60060000    -26.06330000     -0.00276347     -0.00122069     -0.01268380       1
O             -12.51050000      3.41696000      5.35747000     -0.06060110     -0.09963590      0.03852270       8
H             -14.15280000      2.66052000      4.55795000      0.04322610      0.02737540      0.01340430       1
H             -11.92720000      4.85048000      4.67642000      0.01915660      0.07145150     -0.04437360       1
O             -10.34910000     32.26150000     51.84500000      0.01342240     -0.01691000     -0.05950050       8
H              -9.71922000     31.02720000     50.47400000     -0.02012300      0.01710730      0.03675290       1
H             -10.41450000     33.80130000     50.75130000      0.00118456     -0.00870908      0.02615660       1
O              14.76580000    -30.27470000    -14.79350000     -0.09378190      0.09140890      0.03722300       8
H              15.49960000    -31.70260000    -15.23260000      0.04570390     -0.09611780     -0.03287760       1
H              12.80180000    -30.61550000    -14.70230000      0.05335450      0.00750794     -0.00730649       1
O              25.25660000     14.50400000     36.07350000      0.04011980     -0.03755400     -0.01447410       8
H              26.00450000     14.11250000     34.22380000     -0.01168980      0.01757450      0.05816370       1
H              26.40250000     13.62290000     37.42910000     -0.02381560      0.02383930     -0.05077000       1
O               0.70889600      3.16488000     -1.78659000     -0.02767440      0.04270610     -0.01757950       8
H               2.38968000      3.65573000     -1.71373000      0.03690370      0.02258110     -0.00083101       1
H               0.90721500      1.51411000     -1.34182000     -0.00113974     -0.07276310      0.01610160       1
O             -27.61410000     22.02980000     31.68370000      0.08746290     -0.00415229      0.01815580       8
H             -26.25400000     22.86130000     30.68170000     -0.01085820     -0.01661430      0.01610790       1
H             -29.08460000     22.47120000     30.95630000     -0.07380930      0.01816820     -0.02720220       1
O             -35.16970000     12.38420000     25.24690000     -0.01847220     -0.00107386     -0.02609000       8
H             -36.01740000     12.39120000     23.56250000      0.02011380     -0.00319382      0.01765470       1
H             -33.45350000     12.94820000     24.94660000      0.00022359      0.00743694      0.00136437       1
O             -17.13460000     62.82590000    -18.66470000     -0.00306370      0.04821460      0.01211870       8
H             -17.25940000     62.73640000    -16.81080000      0.00417494     -0.01951520     -0.01080940       1
H             -17.28980000     61.37130000    -19.66360000      0.00331533     -0.03064280     -0.00261585       1
O              67.54440000     20.20080000     38.79500000     -0.02515120      0.00666689      0.08112780       8
H              69.08340000     20.05310000     38.05430000      0.06100840     -0.00823082     -0.04042270       1
H              66.25020000     20.07380000     37.64210000     -0.03958130      0.00115111     -0.04472500       1
O              57.18320000    -23.69760000      3.92943000      0.05119430     -0.03503370     -0.05440730       8
H              55.90870000    -23.12700000      4.85677000     -0.06668090      0.04184020      0.07844720       1
H              56.15640000    -23.77730000      2.41469000      0.02084300      0.00413665     -0.02542940       1
O              34.36280000     18.91330000    -14.79220000     -0.03493610     -0.02385580      0.01417520       8
H              33.30490000     17.34000000    -14.79220000      0.02491040      0.01704770     -0.00140049       1
H              34.29510000     19.20950000    -12.92600000      0.00365845      0.00064370     -0.01154230       1
O             -10.23790000      5.68614000     64.00610000      0.02046460     -0.04196450     -0.08319450       8
H             -11.31850000      4.62820000     62.66670000      0.02971010      0.03639810      0.04141000       1
H              -8.40818000      5.56578000     63.21900000     -0.04821200      0.00055405      0.03158690       1
O               6.36918000      1.39714000     -0.99909300     -0.07570850      0.19580800      0.07388280       8
H               6.87496000      0.02679500     -1.53908000      0.06832370     -0.21225900     -0.07452010       1
H               6.96015000      2.46688000     -2.33838000      0.00265901      0.01870120     -0.00050149       1
O              45.52950000      5.25320000     23.67950000     -0.02639400      0.04378660      0.02383660       8
H              45.56000000      6.50758000     25.16080000      0.00627770     -0.04326920     -0.03126860       1
H              47.08030000      4.35444000     23.37750000      0.01029390      0.00735571      0.01278550       1
O              -4.32574000     62.17410000     28.99020000      0.01347530      0.01460620      0.00090491       8
H              -4.73991000     63.51320000     27.61620000      0.01537690     -0.02110730      0.02594260       1
H              -2.68657000     62.41020000     29.85890000     -0.02606460      0.01054670     -0.02275890       1
O               8.19556000     38.35920000     11.09270000      0.01860010     -0.04246710      0.05369640       8
H               7.42671000     37.51190000     12.68330000     -0.00523028      0.02940840     -0.04196880       1
H               9.85052000     37.48040000     11.29260000     -0.01399810      0.01506530     -0.01941560       1
O             -19.03590000     19.37240000     17.86030000      0.01218930      0.02042750      0.00579311       8
H             -20.26900000     20.74050000     17.52430000      0.01602690     -0.01639700      0.00044348       1
H             -17.65270000     20.07490000     18.94180000     -0.02957240     -0.00174931     -0.00441502       1
O              33.61410000     34.87590000     51.37740000     -0.05673290      0.00965358     -0.03175950       8
H              34.97990000     33.87370000     51.90690000      0.01094220     -0.02203320     -0.00066582       1
H              32.18140000     33.93700000     50.37230000      0.04003110      0.00247473      0.03251990       1
O              13.08070000     36.12190000     19.77970000     -0.03839610     -0.09963210      0.14999300       8
H              13.41670000     36.97660000     18.43930000      0.02535450      0.06802160     -0.13269900       1
H              12.82900000     34.26500000     19.55970000      0.00954801      0.03059700     -0.00987095       1
O               1.61324000    -26.91420000     23.94060000     -0.04498370      0.03727210      0.01434510       8
H               0.46410800    -27.92200000     22.97300000     -0.01402180     -0.00496605     -0.00445112       1
H               3.09861000    -27.75730000     23.81480000      0.06011800     -0.02994860     -0.00244645       1
O               2.30634000     14.23160000      6.41183000      0.03164190     -0.08909120     -0.02245850       8
H               2.36375000     12.19140000      6.11060000     -0.00644479      0.07544340      0.00845300       1
H               4.14966000     14.42780000      5.89071000     -0.02770920      0.00697293      0.01408230       1
O               2.92291000      2.59991000     14.11100000      0.12382400     -0.00434327     -0.01507610       8
H               1.31487000      2.63126000     14.50010000     -0.11048300     -0.00205396      0.02557480       1
H               3.82224000      3.53309000     15.45650000     -0.01583440      0.00100325     -0.01489990       1
O             -36.57580000     55.23060000    -30.17850000     -0.02774670      0.01791530      0.03774100       8
H             -35.65890000     54.71600000    -31.59190000      0.01353190     -0.00249326     -0.04947220       1
H             -35.71730000     54.37850000    -28.85680000      0.01109480     -0.00431911      0.02469330       1
O               3.39341000     53.36230000    -18.59460000      0.00863989     -0.05762620      0.03099110       8
H               4.43456000     53.48860000    -16.88200000     -0.02628100     -0.01439960     -0.04004340       1
H               2.82021000     51.44580000    -18.65350000      0.00884031      0.05812660     -0.00154009       1
O             -36.78230000     40.34340000      4.32606000      0.10956000     -0.03761060     -0.08672460       8
H             -36.58030000     38.94760000      2.76833000      0.01115820      0.04728650      0.04932970       1
H             -38.34270000     39.93640000      4.67289000     -0.12540800     -0.02079240      0.04047940       1
O              23.25730000     32.77780000     14.69910000     -0.00098315      0.04094450     -0.03676760       8
H              24.67730000     32.75160000     13.47740000     -0.00582663     -0.00428157      0.01729100       1
H              22.31090000     34.36440000     14.01700000      0.01180440     -0.03284430      0.01272120       1
O             -13.52820000    -21.45130000     10.66060000      0.01713140      0.05135010     -0.07700910       8
H             -12.83360000    -21.11980000      8.69321000     -0.02508530     -0.01647180      0.06340000       1
H             -13.20950000    -23.14780000     11.00240000      0.01091200     -0.03921940      0.00791122       1
O             -44.75600000      6.40671000     16.77910000      0.03406510     -0.00295691      0.01418510       8
H             -45.72620000      7.53984000     17.79040000     -0.00507774      0.00223585      0.00790196       1
H             -43.20760000      6.00524000     17.92450000     -0.03035510      0.00633386     -0.02237390       1
O             -21.53910000    -16.46470000     35.27890000      0.01458090     -0.01913630      0.03412910       8
H             -20.49140000    -18.07350000     35.29510000     -0.02727940      0.03615160     -0.01578650       1
H             -22.28160000    -15.86100000     33.76240000      0.01075250     -0.01700320     -0.01286500       1
O              16.05470000     13.97190000     32.84380000     -0.00593098      0.00128255      0.02257510       8
H              17.50780000     13.49040000     31.90500000      0.00573685     -0.00312304     -0.01244580       1
H              14.61960000     14.05240000     31.73900000      0.00240947      0.00283212     -0.01085790       1
O             -23.78730000     -3.06727000     40.83250000     -0.03289970      0.03589160     -0.00300300       8
H             -24.31160000     -1.22490000     41.26690000      0.01394110     -0.04337230     -0.01511050       1
H             -24.69430000     -3.47321000     39.21640000      0.01756690      0.00951382      0.02374260       1
O              43.91440000      7.93334000     33.85870000     -0.05796630      0.00698915      0.12966500       8
H              44.80050000      7.57551000     32.46870000      0.04333790     -0.03615250     -0.06642860       1
H              43.90580000      6.66122000     35.41730000      0.01026300      0.02391480     -0.05628230       1
O             -11.45130000    -35.12060000     -9.41898000      0.07055830      0.08669920      0.08465330       8
H              -9.43528000    -34.59670000     -9.36574000     -0.06465100     -0.03261030     -0.01436840       1
H             -12.06600000    -36.15960000    -10.60510000     -0.00464377     -0.05454930     -0.06162600       1
O              55.29510000    -21.32970000    -14.58070000     -0.00307914     -0.00288207      0.00801911       8
H              57.10230000    -21.50760000    -14.76730000      0.00706821      0.00150115      0.01146210       1
H              54.65790000    -22.16080000    -13.04480000     -0.00085607      0.00751143     -0.00966544       1
O              16.40370000     -1.51512000      6.35758000     -0.08019130      0.00546778      0.04465380       8
H              15.42540000      0.08563600      6.02306000      0.02306410     -0.02834030      0.00161498       1
H              15.16100000     -2.33695000      7.78808000      0.05576130      0.01829040     -0.04964630       1
O             -35.50710000     -1.80017000     46.92300000     -0.01944630     -0.01039760      0.03540900       8
H             -34.21750000     -1.72135000     45.67920000      0.01615260     -0.01168170     -0.00849055       1
H             -35.22970000     -3.13090000     48.25700000      0.00565283      0.02266170     -0.02500120       1
O               4.61124000    -12.45860000    -10.17060000     -0.03146240      0.05225160      0.05352440       8
H               3.93892000    -11.43090000     -8.60773000      0.03200960     -0.02137710     -0.04165240       1
H               4.13990000    -14.07340000     -9.59747000      0.00171724     -0.03211850     -0.00460935       1
O              18.17140000     15.39970000     15.84560000     -0.08190020      0.05805360      0.08504150       8
H              17.81510000     17.21110000     15.50410000      0.02535310     -0.01270710     -0.01869130       1
H              19.14440000     14.45050000     14.85830000      0.05636480     -0.04041770     -0.07106590       1
O              10.29200000     18.82530000     -9.73880000     -0.04259680     -0.00940961      0.03632640       8
H              10.80910000     17.05890000     -9.34414000      0.00504978      0.01973490     -0.00897869       1
H               8.62480000     19.05850000     -8.72017000      0.03810700     -0.00574336     -0.03063240       1
O              26.99710000     57.79970000     29.10720000     -0.06596970      0.06018400      0.00083780       8
H              25.12360000     58.21810000     29.46360000      0.05526420     -0.02074410     -0.01568520       1
H              27.26960000     56.15730000     29.77080000      0.00148124     -0.03418410      0.01381100       1
O              -5.30262000      7.69297000      4.09374000     -0.03183950     -0.04548910      0.00144107       8
H              -4.98723000      9.44080000      4.20843000     -0.00548685      0.03152150     -0.00133308       1
H              -7.17718000      7.37863000      4.42354000      0.04470110      0.01626840     -0.01355700       1
O              18.39370000    -26.25480000     18.60400000      0.02662470     -0.03931090      0.02175370       8
H              19.40010000    -27.61450000     19.46100000     -0.01148990      0.03275260      0.00566190       1
H              18.43810000    -27.16770000     17.03640000     -0.01552850      0.00882823     -0.02405480       1
O              -1.71675000     20.15500000     45.45680000      0.01957020      0.03629820     -0.02603580       8
H              -2.34750000     18.52540000     45.35570000     -0.01486960     -0.04218570      0.00363253       1
H              -0.82852800     20.40980000     43.81070000     -0.00722030      0.00130889      0.01421230       1
O              39.39860000     44.12510000      1.96782000      0.03405210      0.04880960      0.00961114       8
H              39.99340000     45.26430000      3.38780000     -0.01010840     -0.01960240     -0.02783030       1
H              38.42490000     42.87410000      2.80436000     -0.01717460     -0.01871530      0.01362280       1
O              19.88410000     15.21500000    -28.52770000     -0.02802750      0.06732160     -0.04341360       8
H              20.28760000     13.54240000    -28.51600000      0.02013080     -0.06338720     -0.00311159       1
H              18.89880000     15.44540000    -30.15500000      0.01969640     -0.00687567      0.02489980       1
O             -18.26950000     43.09920000      0.54405800      0.00467686     -0.04384850     -0.07501640       8
H             -17.48400000     41.38580000      0.08148500     -0.01585310      0.04153210      0.00896719       1
H             -17.90630000     43.43720000      2.18396000      0.00981680      0.00959822      0.06752720       1
O               6.32009000    -28.28200000     30.27160000      0.04440430     -0.02890080      0.04381580       8
H               7.19719000    -29.34600000     31.85190000     -0.02473770      0.05394070     -0.06375660       1
H               7.54972000    -27.03440000     29.46960000     -0.02053650     -0.02271830      0.02929360       1
O               5.14481000     32.03770000     -0.26974800     -0.03941040      0.04180150     -0.02876670       8
H               4.09961000     31.33590000      1.03056000      0.00388034     -0.00133894      0.00917679       1
H               3.77742000     33.27750000     -1.20876000      0.04083420     -0.03768740      0.01409930       1
O             -11.56110000    -13.99830000     11.57530000     -0.01195480      0.06555480     -0.02114890       8
H             -11.28150000    -15.65470000     11.93800000      0.01469680     -0.05713080      0.01502360       1
H             -10.07850000    -13.21030000     10.81600000     -0.00643441     -0.00922790     -0.00044966       1
O              -5.07816000      4.88378000     13.52590000      0.06533190     -0.04783860     -0.01324910       8
H              -3.33495000      5.88748000     13.55840000     -0.04707160     -0.02257580      0.01495380       1
H              -4.40769000      2.92668000     13.44410000     -0.02189930      0.07449530     -0.00247716       1
O              27.10570000    -15.11150000     -3.78934000     -0.03864740      0.06103590     -0.01340040       8
H              26.99090000    -13.03300000     -3.99522000      0.00293028     -0.07348370      0.00171097       1
H              25.30450000    -15.66770000     -4.21167000      0.03588640      0.02131330      0.01217470       1
O              22.03650000     10.12870000     44.60370000     -0.01877090     -0.05284960     -0.02389840       8
H              21.42670000      8.78487000     45.77710000      0.00431432      0.01823870     -0.01330860       1
H              21.82280000      9.22802000     42.89740000      0.00756868      0.02552840      0.03958530       1
O              15.51920000     28.39820000     47.96550000     -0.02862120     -0.03664730     -0.00741849       8
H              17.33110000     28.60010000     48.10520000      0.00454821     -0.01297290     -0.00532704       1
H              14.90080000     26.55220000     47.69930000      0.02841460      0.04759000      0.01436320       1
O             -16.33490000     14.04220000     23.17070000     -0.05256170      0.06139870     -0.03343660       8
H             -14.81780000     13.81340000     22.39180000      0.05093610     -0.00038471     -0.03914210       1
H             -16.30480000     12.81090000     24.33610000     -0.00178490     -0.06388600      0.06649940       1
