192
Lattice="24.69187 0.0 0.0 0.0 24.69187 0.0 0.0 0.0 24.69187" Properties=species:S:1:pos:R:3:force:R:3 TotEnergy=-1103.36731 cutoff=-1.0 nneightol=1.2 pbc="T T T"
O       23.68940000      19.29684000      20.04354000       0.04903130      -0.01499100       0.00789992
H       22.26910000      19.42677000      18.95854000      -0.00660774      -0.00120213      -0.01568630
H        0.46843000      18.19201000      19.31004000      -0.03678620       0.02198430       0.00682065
O       22.99713000      21.44353000       0.77596100      -0.07443000      -0.04736630       0.10618900
H       23.11343000      22.96183000       1.63207000       0.01203520       0.04421860       0.00818425
H       23.69313000      21.44553000      23.99381800       0.06039650       0.01072930      -0.12611100
O       10.10970000       2.86740000      15.42840000       0.15157900       0.16128300       0.04765490
H       10.76280000       3.55562000      17.19290000      -0.02721570      -0.03777970      -0.05839290
H        9.04560000       1.67000000      15.33790000      -0.10949700      -0.12816200       0.01105360
O       19.13316000      13.90337000      20.82297000       0.00810729       0.05822280       0.05501720
H       20.60953000      13.24447000      20.04706000       0.02104590      -0.01777460      -0.01345370
H       19.82264000      15.42528000      21.93175000      -0.02922410      -0.04110740      -0.03381110
O        6.46650000       5.95713000      20.14790000      -0.03486800      -0.06578940      -0.04908540
H        7.04627000       7.40673000      20.76450000       0.03623900       0.08104180       0.05500540
H        6.02084000       6.65743000      18.52590000      -0.00274507      -0.01875570      -0.01168590
O       20.89210000       8.31293000       5.46211000      -0.02717590      -0.01631870      -0.08225540
H       20.46594000       8.70543000       7.11767000      -0.02257230       0.00380612       0.02902020
H       19.27038000       7.91200000       4.11545000       0.04051430       0.02411890       0.05528520
O       20.50473000       0.58553000      13.77740000       0.05672200       0.01976050       0.05132670
H       22.42563000       1.16173000      13.89660000      -0.04853420      -0.01955780      -0.00203073
H       20.13243000       0.23723000      12.10330000      -0.00725944      -0.00503428      -0.04462680
O       23.29046000      21.15124000       7.38178000      -0.00463622      -0.03683330      -0.01453710
H       23.17611000      19.54184000       6.44778000       0.02679070       0.00684128       0.00836556
H       21.72248000      21.72664000       6.76644000      -0.02028230       0.03115780       0.00275089
O       10.16493000      14.67284000      18.55650000       0.11092100       0.00796177      -0.03155280
H       11.90983000      14.05114000      19.25170000      -0.05588760       0.03145930      -0.02632960
H        9.03703000      14.10394000      19.68570000      -0.05940530      -0.02645550       0.05187360
O        9.14085000      22.64154000      23.90654000       0.02636740      -0.03284390      -0.01374640
H       10.63190000      21.59984000      23.47514000       0.00382526       0.02942920      -0.01171870
H        8.80030000      21.45274000       0.52447000      -0.02201690       0.00047784       0.02901300
O       15.55126000       4.02849000       8.18382000      -0.01969290      -0.03627910       0.04474180
H       15.56807000       3.81005000       6.39021000      -0.00928731      -0.00328938      -0.00558462
H       14.44187000       2.64095000       9.18665000       0.03446310       0.04130700      -0.03775610
O       13.78017000       3.95213000       2.97476000      -0.03475940       0.02317900       0.07450470
H       12.06107000       3.60023000       3.76916000       0.03189000       0.01195300      -0.02866400
H       13.96897000       3.13413000       1.45756000       0.00124491      -0.03829110      -0.05039640
O       14.03810000      20.01014000      11.50307000      -0.04003020       0.07268850       0.02569930
H       14.94720000      18.82154000      10.66817000       0.03315090      -0.06159730      -0.02019480
H       13.31220000      19.64794000      13.17537000       0.01160500      -0.01148530      -0.00730862
O        4.28133000      14.09070000      14.18613000       0.03884240       0.02273640       0.01210120
H        3.31233000      12.91300000      13.26273000      -0.02541700      -0.02446910      -0.01396150
H        5.99123000      13.37680000      14.22423000      -0.00734015       0.00002409       0.00248184
O       24.19380400       2.06751000       1.70022000      -0.01465800      -0.01779570      -0.01004920
H       24.47312300       2.30135000       3.47140000       0.01376960       0.01632160       0.00080059
H        0.82566000       2.77212000       0.66465100       0.00117730       0.00026726       0.01188920
O       18.65704000      23.79010000       8.97493000       0.08883230      -0.02716920       0.00081954
H       17.83474000       0.44763000       8.33503000      -0.05021420       0.04796570      -0.01734270
H       17.84074000      22.47790000       9.75703000      -0.04112600      -0.02231970       0.01495340
O       15.69954000      11.93700000       0.00563000       0.01748300       0.00522765      -0.12424400
H       14.53944000      11.11350000      23.31730000       0.01658870       0.01948200       0.03929560
H       17.00334000      12.66640000      23.04690000      -0.03272370      -0.02488370       0.06843670
O        5.89337000      15.37956000       3.03637000       0.01678370       0.03034100       0.01487110
H        6.17147000      14.35466000       4.46867000       0.01019870      -0.00054465       0.03059750
H        5.07557000      14.18856000       2.08677000      -0.03256400      -0.03277930      -0.04673190
O       19.59956000      20.66110000      16.34943000       0.00912981      -0.02839170       0.01058360
H       19.89406000      22.28570000      15.66663000      -0.00206865       0.02756440      -0.00919078
H       17.84666000      20.43330000      16.69213000      -0.00521203       0.00313327      -0.00157362
O        8.33096000       3.97027000       4.49039000       0.11890100       0.04548900       0.15234800
H        8.73606000       2.80627000       6.08189000      -0.02349060       0.03691600      -0.04369160
H        7.40806000       3.09897000       3.48550000      -0.09394800      -0.07978160      -0.09513250
O        6.21633000      18.50770000      11.75237000      -0.02706670      -0.06626690       0.02770300
H        7.44163000      17.83700000      10.50917000      -0.01632710       0.01188150       0.01680870
H        5.27243000      16.83750000      12.67887000       0.03434600       0.06013400      -0.03867090
O        7.00677000       6.64480000      13.84946000      -0.02968630       0.04775180       0.00235467
H        7.59017000       8.34184000      14.23256000      -0.01377550       0.00604328      -0.00843438
H        8.50787000       5.85981000      14.22466000       0.04094550      -0.04773470       0.00704087
O        5.88640000       2.35645000       0.31060300      -0.07475750       0.04485170      -0.00131633
H        5.73855000       3.57768000      23.63497000       0.00437851      -0.01249630       0.00965750
H        7.37829000       1.55757000       0.18933500       0.06787120      -0.03922660      -0.01771840
O       19.68323000       3.73421000      24.54890000      -0.11297100       0.05673360      -0.04230630
H       18.99433000       5.13793000       0.88663000       0.00018075      -0.01470220      -0.01954730
H       21.02783000       3.30670000       0.71333000       0.11253900      -0.04117740       0.05780720
O        0.22394200      12.10306000       4.74133000      -0.00593299      -0.05088380      -0.00123351
H       23.48309000      10.91356000       4.53093000       0.01215040       0.01575240       0.00965488
H       24.26889600      13.73486000       4.74593000      -0.01333280       0.03268050      -0.00501548
O       11.37470000      13.61703000       9.57826000       0.04654960       0.02670290       0.01460240
H       10.31790000      12.60013000       8.65082000      -0.04457440      -0.03090350      -0.02187050
H       12.38800000      14.45993000       8.27859000       0.00040851       0.00115685       0.02013030
O        6.62307000      20.62370000      19.50070000       0.01429070       0.02807210       0.01923420
H        5.85847000      19.05240000      19.78170000      -0.01849790      -0.02974890      -0.00401602
H        7.60757000      20.98290000      21.02350000      -0.00580787       0.00604393      -0.00548802
O        7.91973000       9.30553000       4.05946000      -0.02512680       0.05818510      -0.03651030
H        7.86323000       7.55513000       4.17796000       0.00079508      -0.04841970       0.00763879
H        6.70783000       9.70033000       2.62826000       0.01836230      -0.00982844       0.03541010
O       12.79250000      10.19403000      20.53700000      -0.01047280       0.08567730       0.03791820
H       13.37670000      11.28893000      19.18100000       0.01105390      -0.01213160      -0.00160577
H       12.85370000       8.56693000      20.08000000       0.00998679      -0.08598640      -0.03232780
O        2.00944000      23.76194000      19.70310000      -0.00542913      -0.03504420       0.00715169
H        0.93599700      22.19444000      20.04900000       0.01207030       0.02788510      -0.01180700
H        3.72724000      23.07234000      19.74180000      -0.00999052       0.00458153       0.00060954
O        0.04003200      17.46110000       3.40857000      -0.09856180      -0.02475730       0.02838020
H        1.68497000      17.48350000       3.29165000       0.12855600      -0.01391500       0.00658895
H       24.41177300      18.72050000       2.23137000      -0.03130330       0.03271350      -0.02683080
O        0.80221700       1.27878000      14.55860000      -0.06345630       0.10508100       0.01345700
H        1.44984000       0.08748800      13.61900000       0.05360920      -0.09178650      -0.07095490
H        1.23008000       1.06124000      16.22030000       0.01369690      -0.01425460       0.05246520
O       13.77364000       5.05536000      19.33384000      -0.06338390       0.01586370       0.02455850
H       15.46534000       4.75106000      19.14144000       0.05500600      -0.01342000      -0.02087600
H       13.50934000       4.56186000      21.07304000      -0.00067417      -0.00800843      -0.00504804
O        8.70249000       0.70346000       8.98857000      -0.06074630       0.00022545       0.00081321
H       10.09000000       0.86366000      10.08137000       0.01896880       0.00573048       0.01915500
H        7.09095000       0.74826000      10.04927000       0.03827560      -0.00398766      -0.03115030
O       15.11494000      16.07583000       2.71994000      -0.07480950       0.04309720      -0.00993411
H       15.54794000      14.51423000       1.91998000      -0.00658925      -0.01130630      -0.01086420
H       13.18044000      16.58603000       2.05446000       0.07758650      -0.01888660       0.03523370
O       21.50730000      13.47263000      12.93180000      -0.05743420       0.03759130       0.00501278
H       21.50340000      15.37603000      12.91590000       0.02323060      -0.02491810      -0.00520654
H       19.60630000      13.32723000      12.82710000       0.03306190      -0.01424440      -0.00195056
O        6.81067000      11.92327000       8.33966000       0.09926660      -0.02537460      -0.10599500
H        6.90147000      10.70357000       6.72937000      -0.01757830       0.02586760       0.05031700
H        5.51417000      12.02567000       9.38738000      -0.08562090      -0.00978963       0.04626660
O        1.28554000       3.84975000      21.31910000      -0.04412110      -0.03974420       0.02202590
H        1.45594000       2.03356000      20.81630000      -0.01057390       0.01153720       0.01061350
H        2.55714000       4.50674000      20.38520000       0.05711110       0.03488980      -0.03000420
O        1.14037000      10.71167000      12.01773000      -0.00880336      -0.04488100      -0.02355200
H        0.99907000       8.77527000      11.43183000       0.00414567       0.06900730       0.01768280
H       24.38214000      11.78567000      11.53523000       0.01139210      -0.02558630       0.00431026
O       15.42880000      16.22520000       8.24103000       0.07646930      -0.05362440       0.00564374
H       16.89910000      14.92850000       8.66103000      -0.05470200       0.04112760       0.01056110
H       15.82840000      16.08740000       6.47593000      -0.01765240       0.01872470      -0.02578140
O        3.41267000      23.50926000      10.11363000      -0.01656110      -0.08553350      -0.03495370
H        4.25987000      21.85640000      10.72553000      -0.01561270       0.04065550      -0.01019230
H        2.31687000      22.60904000       8.66823000       0.03328460       0.04165640       0.05144830
O       18.22873000       7.46920000      11.53523000      -0.05534940      -0.06574570      -0.06041610
H       17.20123000       6.23007000      10.13693000       0.03908920       0.05502910       0.02939270
H       17.79633000       6.16526000      12.74883000       0.01380290       0.01348630       0.02483210
O       15.21515000      13.71814000      17.70663000       0.02521040       0.00151979       0.00173943
H       17.01188000      13.85274000      18.31953000      -0.03125110       0.00036366       0.00075406
H       15.34548000      13.50144000      15.90373000       0.00013929      -0.00414933      -0.00621023
O        2.74396000       5.72697000      11.01527000      -0.16068700      -0.05445290      -0.05016680
H        4.18896000       6.17147000      11.56397000       0.15433800       0.04875660       0.05483050
H        2.26216000       4.32887000      12.09587000      -0.00174962       0.00588895      -0.00596632
O       13.28770000       0.66025000      11.20890000      -0.00808556       0.20465800       0.00508125
H       13.17630000       1.35046000      12.90760000      -0.00399338      -0.00408655      -0.00509725
H       13.34940000      23.77254200      11.24700000       0.01367840      -0.19964900       0.00901549
O       14.24884000      20.96950000      21.67053000       0.00823454       0.00257106       0.01926260
H       13.67774000      20.35373000      20.08193000      -0.00240698      -0.00754142      -0.01732600
H       15.65604000      19.91952000      22.22323000      -0.00433546       0.00107140      -0.00318589
O        9.21507000      11.78347000      14.25167000      -0.03077410      -0.03641080      -0.06378790
H       10.04410000      12.78517000      15.39914000       0.02647730       0.03427460       0.03152950
H        9.74526000      12.08717000      12.46997000      -0.00318257       0.00360916       0.03390820
O       22.95240000      18.52920000      11.89780000      -0.06839120       0.05760620       0.03578080
H       22.02070000      19.31760000      13.59210000       0.03646840      -0.02932150      -0.07013530
H       22.16810000      19.58940000      10.41950000       0.03248440      -0.02811650       0.04447910
O        8.27968000      22.34200000      15.17987000      -0.00491535       0.03700820       0.06317310
H        7.27863000      22.31280000      16.87253000       0.02752830      -0.01034700      -0.04723920
H        7.53820000      21.09850000      14.17547000      -0.01814200      -0.03041920      -0.02563370
O        0.48123000       5.60696000       5.49493000       0.04351110      -0.02786940       0.03904010
H        0.80283000       5.64076000       7.33233000       0.01113820      -0.00778880      -0.02268300
H       23.78480000       6.66366000       5.49383000      -0.04642040       0.02767680      -0.01434050
O       17.00543000       7.82806000       2.26883000      -0.02044610      -0.03730620       0.00883917
H       16.06749000       9.24244000       1.60004000       0.01626770       0.02148250      -0.00659486
H       15.58807000       6.60133000       2.55265000       0.01859510       0.00392240       0.00678781
O       12.43700000      19.37564000      16.64170000      -0.03829900      -0.02060790      -0.01207940
H       11.00740000      20.66264000      16.49740000       0.01744050      -0.02672250      -0.00296970
H       11.58020000      17.62284000      16.57910000       0.01881530       0.05128400       0.01066020
O        3.08183000      16.50320000      18.63593000      -0.02433680      -0.04564120       0.02704260
H        2.37249000      14.75840000      19.31103000       0.01986880       0.03792940       0.00291921
H        3.53487000      15.68180000      17.07893000       0.00611786       0.01186340      -0.02231990
O       18.68773000      18.38113000      24.03437300       0.05649780       0.06666610      -0.02364020
H       19.82093000      20.00163000      24.38677300      -0.02683950      -0.05707200      -0.01425960
H       17.71913000      18.34163000       0.79984900      -0.02924370      -0.01472500       0.03745510
O       22.68260000      11.29380000      17.79764000      -0.02608880      -0.01541030      -0.01854550
H       22.12090000       9.53058000      18.46634000       0.00250585       0.03151590      -0.02963780
H       22.20090000      11.80680000      15.92994000       0.01497750      -0.02221070       0.04938730
O        9.98717000      18.54933000       3.11811000      -0.01181760      -0.00937645       0.00658479
H        8.54297000      17.39193000       2.55085000       0.02912160       0.02452540       0.03389320
H       10.09177000      18.88383000       5.05445000      -0.01519600      -0.01746790      -0.04200770
O        9.86801000      19.70364000       8.32393000       0.09743970       0.07247700      -0.00051842
H       11.92560000      20.01544000       9.13513000      -0.08287250      -0.02703170      -0.01605000
H        9.76824000      21.57594000       7.81753000      -0.01759190      -0.04335790       0.01467000
O        3.27072000      10.57803000       1.10215000       0.05577610      -0.01479760      -0.06415460
H        2.16044000      10.80243000       2.39329000      -0.04726550       0.01294070       0.05610130
H        2.32491000      10.05513000      24.32323100       0.00668875       0.00655674       0.00463556
O       16.06617000      12.42357000      12.33430000      -0.09626140       0.01716190      -0.02437740
H       16.31450000      10.69147000      11.95860000       0.02077500      -0.03010310       0.00145403
H       14.03427000      12.45657000      11.63730000       0.07695600       0.01476460       0.01990220
O       17.96113000       4.42641000      16.12790000      -0.08835270      -0.08384380      -0.06378680
H       19.33886000       4.97027000      16.81540000       0.11452400       0.06572040       0.06628170
H       18.73537000       2.78409000      15.52710000      -0.02390050       0.01841140      -0.00251694
O        2.35443000      11.73697000      20.06651000      -0.01987620      -0.01545610       0.00065678
H        0.70293000      11.03717000      19.33441000       0.03582940       0.01781540      -0.00444010
H        3.87753000      10.98517000      19.37393000      -0.01787930       0.00248805       0.00193052
O       21.66750000       6.63278000      19.93013000       0.01784520       0.01219630      -0.00343384
H       20.29410000       6.81123000      21.19223000       0.04132030      -0.01381010      -0.00555723
H       23.50430000       6.15129000      20.43993000      -0.06084970      -0.00321364       0.00911596
O       15.30980000       1.38513000      23.15103000       0.05809380      -0.05235680       0.00136944
H       17.31190000       1.62213000      23.67253000      -0.07201540      -0.00375969      -0.02009630
H       15.06400000      24.16370000      22.52713000       0.00701020       0.06366110       0.02060060
O        7.41187000      10.99260000      21.84940000       0.12480100       0.00673703      -0.29120500
H        9.24287000      10.68230000      22.11210000      -0.01038650       0.00524409      -0.02821340
H        7.07487000      10.91290000      23.29930000      -0.10813000      -0.00931602       0.31857100
