192
Lattice="23.05881 0.0 0.0 0.0 23.05881 0.0 0.0 0.0 23.05881" Properties=species:S:1:pos:R:3:force:R:3 TotEnergy=-1103.13425 cutoff=-1.0 nneightol=1.2 pbc="T T T"
O        2.01133000      14.98010000       4.96099000       0.01805680       0.01062680      -0.00960675
H        1.09207000      16.47190000       5.37522000       0.01733270       0.02495100       0.01099580
H        0.65270000      13.91830000       5.40627000      -0.01977580      -0.04356690       0.00584485
O       21.27790000      22.83200000      16.30260000       0.01366350      -0.00143468       0.04497570
H       20.36920000       0.54116300      14.97970000      -0.01671320       0.00962290      -0.01822530
H       21.19690000       0.97824000      17.79350000       0.00652537      -0.00547256      -0.02474920
O       13.03230000      16.27500000      10.59070000       0.00631320      -0.03634790      -0.06139850
H       11.86190000      14.84920000      10.77960000       0.00568541       0.00605021       0.01314650
H       13.63020000      15.62590000       8.82260000      -0.01116130       0.01783310       0.04851750
O       17.14790000      21.98240000       0.80953000      -0.01877840       0.00391627       0.00883938
H       18.15510000      20.51060000       1.01679000       0.01491620      -0.00901306       0.00033263
H       15.62660000      21.55000000       1.72536000       0.00109866       0.00469872      -0.00381928
O        8.42975000      16.72160000      19.36010000      -0.05015230      -0.08190730       0.00123581
H        6.81030000      16.75410000      20.49390000       0.04528540      -0.00838977      -0.03233140
H        8.46081000      14.40980000      18.65590000       0.00189955       0.07407710       0.02949790
O       22.92370000       6.66369000      16.39620000      -0.00542830      -0.01188700      -0.00820190
H        0.77253400       8.17052000      16.00850000       0.01127890       0.00544415      -0.00119253
H        0.62800300       5.28859000      15.46950000       0.00519805       0.01150080      -0.00557654
O        4.40211000       4.33811000      13.46890000      -0.01843980      -0.02044810      -0.02489740
H        4.35194000       3.19685000      14.93040000      -0.00278233      -0.00651406      -0.01332050
H        4.29679000       3.07829000      12.04790000       0.01188760       0.02819570       0.02590740
O        3.68273000      10.85920000      16.63330000      -0.03003850       0.00836553      -0.01180800
H        2.91831000      11.25360000      14.97460000       0.00398842       0.00167182       0.01285650
H        5.41321000      10.72370000      16.23850000       0.01758110      -0.00813670      -0.00046991
O        5.29994000      20.05600000       0.33991200       0.03465450       0.07270220       0.05347910
H        5.20121000      18.39190000       0.65809000      -0.01997340      -0.08732190      -0.00582709
H        5.70208000      20.49910000       2.21473000      -0.02667940       0.00559437      -0.04507100
O       22.78330000      18.86010000       8.22417000       0.00886781       0.00148252       0.01347260
H        0.95524700      20.23550000       8.31241000      -0.00988660      -0.01349090      -0.00739991
H        0.22164100      17.70650000       9.56544000       0.00014538       0.00860176      -0.00820702
O       18.90420000      14.95320000       9.97758000       0.03789830       0.04204640      -0.03866000
H       18.15480000      16.58270000       9.59468000       0.01779610      -0.01027330       0.00402852
H       17.63070000      14.17390000      10.81620000      -0.05097610      -0.04181210       0.04173260
O        8.69448000      17.57520000       7.39552000      -0.03039790       0.00708032      -0.01584170
H       10.14440000      17.75750000       8.42512000       0.01877430      -0.00103069       0.01210320
H        8.52915000      16.06640000       6.42824000       0.01187460      -0.02020670       0.00578419
O       21.80190000      19.53390000       1.97519000      -0.00420768      -0.02811020      -0.01259410
H       22.33800000      21.03620000       2.72291000       0.01083400       0.04621490       0.01405430
H       22.54290000      18.40830000       3.15600000      -0.00171441      -0.01591390      -0.00147764
O       21.54020000      11.96410000       6.93886000      -0.04106590       0.02605160       0.02240420
H       20.09660000      12.97910000       7.99327000       0.04602500      -0.03662390      -0.03064140
H       20.95560000      10.33800000       6.30401000      -0.00765850       0.01496050       0.00680958
O        7.34848000      18.98210000      14.96720000      -0.00008764      -0.03971570       0.03743690
H        6.35512000      20.44990000      15.07910000      -0.01068210       0.02431790       0.00598369
H        7.28835000      18.15720000      16.80130000       0.01521290       0.01848310      -0.04113290
O       10.74110000       8.14079000       5.81733000       0.01633640      -0.01291960      -0.00286168
H       11.72160000       6.65361000       6.38952000      -0.01731260       0.01827860      -0.00210667
H        9.28149000       8.45339000       6.92381000       0.01427100      -0.01331860       0.00820617
O        0.41021000       0.22863300       5.06049000       0.04981460       0.02248410      -0.00037327
H       22.73610000       1.92518000       4.90441000      -0.00436147      -0.01619720       0.00294797
H        2.29546000       0.54040600       5.05647000      -0.04646310      -0.00961755      -0.00093760
O       15.55570000       2.87909000      20.73570000      -0.02319290       0.01517690       0.01154530
H       14.29430000       2.94029000      22.12320000       0.02606630      -0.00116626      -0.01877920
H       16.17610000       1.19240000      20.63690000      -0.00276833      -0.00773355       0.00724314
O       19.67170000       5.87721000       8.93832000       0.02949520      -0.02283240       0.07703710
H       21.41640000       6.41938000       9.10727000      -0.01449750       0.00487107      -0.02666720
H       18.66560000       6.29518000       7.60227000      -0.01252960       0.02490760      -0.05147340
O        8.96394000      10.00510000       1.06043000      -0.13821100       0.08487750      -0.17835800
H        9.92552000       9.54972000       2.21345000       0.11111800      -0.08792930       0.15928800
H        7.42143000       9.13926000       0.52069000       0.02713790      -0.00229280       0.01944730
O       20.00440000       8.12555000      21.29550000       0.00903429      -0.00083735       0.02317020
H       19.37450000       9.65300000      20.58750000       0.00422998       0.01008710      -0.00817626
H       21.24310000       8.73468000      22.57120000      -0.02482500      -0.00596882      -0.02012380
O        9.48341000      11.68350000      17.67590000       0.01431410      -0.00777220       0.01880740
H       11.31050000      11.84800000      17.90420000       0.00149331       0.00461414      -0.00262194
H        9.25380000       9.90951000      18.17460000      -0.00942809       0.02173300      -0.00763801
O       21.15840000      13.03750000      16.08000000       0.00169223       0.05856230       0.01206230
H       19.55750000      13.91500000      15.58610000       0.03273610      -0.01349680       0.00478897
H       22.34370000      14.54560000      16.51250000      -0.02923960      -0.04171980      -0.01942400
O       21.85380000       3.42422000      19.74730000      -0.00699618       0.00852821       0.00936413
H       22.42780000       4.95867000      18.80960000      -0.00765393      -0.01337350       0.00994507
H       20.33440000       4.03860000      20.57420000       0.00633846      -0.00382758      -0.00431680
O       16.61640000      18.57150000      13.78650000      -0.00189179       0.00236409       0.01955380
H       14.95890000      17.78180000      13.57620000       0.01409000       0.00159231       0.00421636
H       17.06100000      18.59580000      15.60300000      -0.01199020      -0.00349475      -0.02968930
O        7.01056000      12.54080000       5.37945000      -0.07283690       0.04851390       0.02793660
H        5.00150000      13.43930000       5.45939000       0.07441520      -0.04186520      -0.02149930
H        7.32990000      11.19740000       4.18156000      -0.01682440       0.01385880      -0.00743815
O       10.55650000      11.69640000      12.66620000       0.01002650      -0.01094910      -0.02810450
H        9.88053000       9.95748000      12.22890000      -0.00008568       0.04292280       0.02066840
H        9.80435000      12.75310000      13.95370000      -0.00714379      -0.03091720      -0.00349232
O        7.79411000       4.17801000      21.85270000      -0.01280210       0.00492678      -0.00726714
H        6.44286000       2.89673000      21.78250000       0.01603880       0.00169279       0.00321305
H        9.10088000       3.70058000      23.01420000      -0.00329476      -0.00486279       0.00110425
O        1.35970000       5.27536000       3.05562000       0.00909334      -0.01569390       0.01160650
H        2.72919000       4.02858000       3.02551000      -0.00842440       0.01665260      -0.00641408
H        1.42654000       6.29380000       1.55427000       0.01173930       0.00047872      -0.00706791
O       15.27050000      17.32470000      19.15320000       0.05507700      -0.04941820       0.03795190
H       14.84930000      18.98580000      18.87450000      -0.02061360       0.05083540      -0.00053727
H       16.86340000      17.33480000      20.23480000      -0.03250970       0.00998982      -0.02852150
O        3.71012000       0.37549000      16.11020000      -0.01160250      -0.03511060      -0.07816120
H        3.35891000       1.04073000      17.65020000      -0.01258670       0.01577520       0.07570170
H        2.01068000       0.05229000      15.37270000       0.01911850       0.00343729       0.01495610
O        4.92947000      20.13140000       5.55655000       0.04011930      -0.05835540      -0.00220158
H        6.63873000      19.16490000       5.97730000      -0.04747940       0.02246610       0.00873150
H        5.58003000      21.75340000       5.45165000       0.01191210       0.04353620       0.00156351
O        7.64617000       6.83630000      15.94200000       0.03636920      -0.02384440       0.06934390
H        6.48026000       5.68229000      15.05750000       0.00628020       0.00692848       0.00513326
H        8.32988000       6.00077000      17.65660000      -0.03216340       0.01966490      -0.06846860
O       18.34150000      15.51260000       3.01452000      -0.06771250      -0.01697390      -0.07751260
H       18.60470000      14.95090000       4.61848000       0.01267370      -0.02427670       0.05332520
H       16.66850000      14.54150000       2.47185000       0.05182470       0.03488900       0.01794590
O       20.39730000      18.99810000      20.29780000       0.01504730      -0.02066250       0.00597051
H       21.66580000      18.91440000      21.68800000      -0.02125050       0.01312680      -0.00693090
H       20.71300000      20.42250000      19.21870000      -0.00034492       0.00710733      -0.00031080
O       12.63970000      12.85150000       6.52004000       0.04445300      -0.02127240       0.05813940
H       12.52190000      11.00870000       6.37977000      -0.01600230       0.01140260      -0.00925068
H       11.94750000      13.76540000       5.24019000      -0.02337100       0.01286830      -0.05186420
O       16.13040000      19.13850000       6.38851000      -0.02607810       0.00480269       0.02767300
H       16.20190000      18.53460000       8.14852000       0.00591182       0.01498590      -0.03380630
H       17.57020000      18.77800000       5.37358000       0.01050920      -0.00975058       0.00549786
O       15.79410000      11.42160000      13.00790000      -0.03477780       0.16916200      -0.00167675
H       14.03860000      11.34500000      12.52280000      -0.01576280       0.01589710       0.00860976
H       16.16650000       9.87168000      12.98430000       0.05737050      -0.17754600       0.00345441
O        7.22478000       9.09473000       9.35122000      -0.05323430      -0.03666070      -0.00447349
H        6.98817000      10.67240000       8.43796000      -0.00485023      -0.00381369      -0.00221321
H        5.55763000       8.02342000       9.14089000       0.04724320       0.04257810       0.00841605
O       11.08770000      19.74700000       2.70179000      -0.10172100      -0.02863590       0.02294360
H       11.49840000      18.76650000       4.26405000      -0.00543569       0.01949230      -0.02748970
H        8.62614000      19.35100000       2.64152000       0.11566600       0.01639720      -0.00251099
O       14.59360000       0.36602100      11.82380000       0.02255430      -0.03549430      -0.00450986
H       15.57790000      21.92020000      12.36170000      -0.00064585       0.01921570      -0.01020910
H       13.81970000       0.82672600      13.35990000      -0.00229688       0.02323350       0.02576930
O       21.91050000      12.90580000      21.93820000       0.02764330      -0.01893840      -0.06361530
H       21.73340000      12.96760000      20.03770000       0.01908070      -0.01424370       0.02790990
H       20.53250000      13.91640000      22.15710000      -0.04952330       0.03697650       0.03655640
O        3.51635000      15.34440000      21.10230000       0.01137500       0.00964331      -0.03986160
H        2.15668000      14.90410000      22.17780000      -0.01127210      -0.00721486       0.00452234
H        2.78856000      15.76480000      19.31180000       0.01710310      -0.00777548       0.05320630
O       15.15720000      12.32550000      18.61970000       0.06484710      -0.03073850      -0.07417070
H       16.87570000      11.82800000      16.42980000      -0.07945220       0.01274190       0.06888860
H       15.16030000      14.13900000      18.46950000      -0.00093629       0.00221969      -0.00185821
O        3.07477000       8.14310000      22.01080000       0.00517511       0.01392570      -0.07542120
H        2.39825000       9.14887000      20.42510000       0.02345110      -0.02859940       0.05363980
H        4.39506000       7.08333000      21.16340000      -0.02362590       0.01543760       0.01822490
O       18.11290000       6.71835000      13.86360000      -0.03362410       0.00367827       0.01976880
H       18.40480000       7.14836000      12.17260000       0.00240711      -0.00750974      -0.03973830
H       19.76710000       6.65257000      14.47220000       0.02809120      -0.00147356       0.02244990
O       14.70470000       7.49192000       0.54903500       0.08760710       0.01051930      -0.06742520
H       16.40790000       8.37776000      21.74160000      -0.07221230      -0.03721630       0.07933360
H       13.13670000       8.31531000       0.45970200      -0.01453710       0.01889050      -0.01276800
O       17.54840000       8.65084000       4.55280000      -0.00088065       0.03473190       0.02684850
H       16.78060000       8.01983000       3.07007000      -0.01322770      -0.01762330      -0.02609060
H       16.44110000      10.11640000       4.80269000       0.01590950      -0.01362260       0.00428466
O        7.52716000       1.92739000       9.86913000      -0.02648850       0.05484930      -0.01432540
H        8.38441000       3.54126000      10.23220000      -0.00526399      -0.01612150      -0.00518697
H        8.76495000       0.70878800      10.24500000       0.02327540      -0.03503060       0.00520239
O       11.07070000      21.23580000      19.37730000       0.01270560       0.02041960       0.02177300
H       10.35980000      19.58120000      19.31060000      -0.00924378      -0.01327050       0.00207140
H       10.96360000      21.70810000      21.17030000       0.00112373      -0.00845569      -0.02304150
O       19.38100000       3.13927000       4.33182000      -0.05758530      -0.09359220       0.02404110
H       19.82960000       4.24293000       3.16815000       0.03828270       0.08878520      -0.06070230
H       18.45390000       2.03958000       3.08847000       0.01208800       0.00040706       0.02951420
O       10.99390000       5.89851000      11.56020000       0.02999520      -0.02251860       0.02445080
H       12.55070000       5.11108000      12.35680000      -0.03545170       0.01863950      -0.01892430
H        9.81603000       5.64940000      12.94440000       0.00333207       0.00988347       0.00071627
O        4.09436000      16.76790000      11.63560000      -0.12470300      -0.03902470      -0.10239300
H        5.25987000      16.59230000      10.37170000       0.03382960       0.00068150      -0.04381130
H        4.96441000      17.18910000      12.91870000       0.09386790       0.04675240       0.13779800
O       13.91180000       3.57647000      15.58100000      -0.23843800      -0.15784900       0.05789270
H       13.53720000       3.63929000      17.42830000       0.00235599      -0.01149450      -0.02758420
H       15.12580000       4.48221000      15.52040000       0.23999700       0.17057900      -0.02501760
O        6.08613000       2.22003000       4.58051000      -0.08645030      -0.06217100       0.08138740
H        6.38145000       2.31176000       6.48682000      -0.00375069      -0.00690205      -0.02722010
H        7.26550000       3.25718000       4.06242000       0.08860000       0.06899020      -0.04665880
O       19.96580000       0.54461300      11.44290000       0.01353720      -0.02523440      -0.01060550
H       19.23780000       0.52244600       9.77466000      -0.00139851       0.01182600       0.00422712
H       20.97890000      22.06590000      11.36360000      -0.00668143       0.01051450       0.00199065
O       14.67020000       3.51350000       7.59706000       0.00939771      -0.01984410       0.02494900
H       14.90160000       2.73410000       9.36176000      -0.00048063       0.01316740      -0.04933520
H       16.16050000       3.13297000       6.55951000      -0.01047670       0.00590334       0.01781070
O       10.53930000      21.20720000      10.86380000      -0.06773510      -0.04343390       0.01254160
H       12.04620000      21.91670000      11.44680000       0.03416500       0.01147060       0.00544411
H        9.71816000      20.25130000      12.29330000       0.01697630       0.01901590      -0.02455840
O       13.27360000      14.23280000       0.87365700       0.00112672       0.04764070      -0.08237900
H       13.67680000      15.53370000      22.22680000      -0.02365000      -0.05760190       0.07619190
H       11.72550000      13.34020000       0.31979000       0.02133770       0.01127920       0.00553909
O        2.24260000      11.89660000      11.69360000      -0.03818560      -0.00419675      -0.00084202
H        1.20557000      13.11470000      10.80630000      -0.00520195      -0.01039940       0.01103280
H        3.81260000      12.40330000      11.12270000       0.04073630       0.00601180      -0.00651756
O        1.34732000      17.61900000      17.56560000       0.04419040      -0.05329940      -0.00253560
H        2.12052000      18.29970000      16.13540000      -0.01336600       0.02426640      -0.01749680
H       22.90410000      17.84230000      18.45210000      -0.04104090       0.03241520       0.00067204
O       11.31980000       2.18040000       3.34871000       0.00107907      -0.04944870       0.01886100
H       12.26420000       1.86278000       4.91769000       0.00382202       0.02948840      -0.00552695
H       10.77010000       0.36874200       3.33521000      -0.00025247       0.02193480      -0.01855230
O        3.56680000       0.93769600      21.20460000      -0.00608961       0.01374230       0.00099549
H        3.60035000      22.23150000      21.73190000       0.00440460       0.00665142       0.00541577
H        2.30616000       1.83353000      22.17240000      -0.00220374      -0.00827973      -0.00769540
O        1.72997000       7.73339000       7.93001000       0.05879260      -0.03802970      -0.08385390
H        2.56544000       6.75473000       6.20296000      -0.04835820       0.03206000       0.06964600
H        1.83932000       9.41252000       7.21783000      -0.00876960       0.00149316       0.01444310
