192
TotEnergy=-1102.06300000 cutoff=-1.00000000 nneightol=1.20000000 pbc="T T T" Lattice="24.33617000       0.00000000       0.00000000      -0.00000100      24.33617000       0.00000000      -0.00000100      -0.00000100      24.33617000" Properties=species:S:1:pos:R:3:force:R:3:Z:I:1
O               6.24381000     12.67170000      2.95825000      0.10235900     -0.00528715     -0.05852850       8
H               7.21489000     12.19280000      1.23073000     -0.04333030      0.02299260      0.06630410       1
H               4.58398000     12.36610000      2.63072000     -0.05918890     -0.01598450     -0.01849920       1
O              19.87860000     21.12940000     14.64470000      0.17599200      0.10152800     -0.10820700       8
H              18.92090000     22.56070000     14.56120000     -0.01721480      0.07202540     -0.00002563       1
H              18.82680000     20.21540000     15.30560000     -0.15777000     -0.16817200      0.10780800       1
O               8.80611000     17.48730000     16.98610000      0.04330780     -0.01085700      0.00804256       8
H              10.33180000     16.61920000     17.76810000     -0.04381120      0.02770010     -0.01118480       1
H               7.44339000     17.24140000     18.11840000     -0.01001100     -0.01455410      0.01008060       1
O              24.35150000      0.93467400      7.42562000     -0.01056560     -0.03484570      0.01083780       8
H              23.72340000      0.49285600      5.72824000      0.00487565      0.00416076      0.03810130       1
H              23.91220000     23.88030000      8.64490000      0.00841093      0.02236500     -0.03395500       1
O              13.02020000     17.29320000     20.49440000      0.04155060     -0.05979920     -0.08051800       8
H              13.91930000     15.88970000     21.24630000      0.01376580     -0.01477320     -0.02027710       1
H              12.60560000     17.94220000     21.95720000     -0.05229410      0.06537960      0.09264120       1
O               4.35018000      7.23292000     16.46620000     -0.01211260     -0.01137200     -0.02749280       8
H               4.37871000      5.56378000     15.70390000     -0.00358359      0.00970460     -0.01881970       1
H               4.74861000      6.71999000     18.08990000      0.01154530      0.00209990      0.04327540       1
O              12.25830000      4.09018000     19.93210000     -0.02667570      0.07752200     -0.01112700       8
H              10.78000000      5.42182000     19.89570000      0.04576310     -0.06126400     -0.00197662       1
H              11.67040000      2.62653000     20.74920000     -0.01800610     -0.00848254      0.00710029       1
O               4.18027000     14.55460000     18.78080000     -0.00006204     -0.04804660      0.00876271       8
H               3.49121000     14.48380000     17.02770000      0.01368580     -0.00911284      0.03505440       1
H               4.45923000     12.72100000     19.57330000     -0.00934057      0.06203120     -0.03878980       1
O               9.80809000     19.57210000     24.30160000      0.00444801     -0.01895120      0.00715387       8
H               8.46014000     18.21290000     24.51060000      0.04650220      0.02871990      0.00533386       1
H              11.51480000     19.25130000      0.75027700     -0.05115200     -0.00466264     -0.00468499       1
O              17.99670000     16.03730000     10.29490000      0.00891766      0.10403800     -0.06071510       8
H              18.51120000     14.92360000     11.39870000      0.05359000     -0.07891030      0.08556190       1
H              16.57070000     15.25570000      9.72424000     -0.05816990     -0.02543380     -0.02146900       1
O              14.65800000     18.93610000     15.03850000      0.05571750      0.05952540     -0.02926600       8
H              13.73370000     17.58410000     15.58680000     -0.01940750     -0.04376080     -0.00398509       1
H              15.58810000     18.84010000     13.39860000     -0.02944670     -0.02160290      0.03090780       1
O               2.97280000     19.85440000     11.81450000      0.04246440     -0.00596452     -0.05204840       8
H               3.57427000     19.49050000     13.45120000     -0.00433333     -0.00165710      0.01999000       1
H               4.61667000     19.76110000     10.83320000     -0.03687990      0.01001170      0.01989940       1
O               1.09039000     18.94470000      5.39713000     -0.05688420     -0.00040184      0.03392410       8
H               2.52919000     19.02700000      4.38619000      0.03500320      0.00347185      0.01525880       1
H               1.08418000     18.97550000      7.28161000      0.02570980      0.00022150     -0.04103550       1
O               1.34554000     11.84310000     24.39290000     -0.09182730      0.00566715      0.09164500       8
H              24.21600000     10.62340000      0.45142200      0.05337770      0.03185450     -0.01957200       1
H               2.37613000     11.34360000     23.15920000      0.03719030     -0.03561370     -0.07013780       1
O               7.15129000      2.30368000     18.85350000     -0.01191410     -0.00266368      0.06524620       8
H               6.36848000      1.28293000     20.23030000      0.01634950      0.02018040     -0.02082100       1
H               6.58480000      1.46383000     17.43220000     -0.00822701     -0.02169740     -0.04382450       1
O              14.36550000      7.92802000      9.53700000      0.02460260      0.00015145      0.02938730       8
H              13.40820000      6.65211000     10.51680000      0.00624158      0.02321710     -0.00750853       1
H              15.87580000      8.43571000     10.64970000     -0.03206150     -0.02416890     -0.01882930       1
O               4.19330000      5.20716000      3.66581000      0.00384102     -0.07291160     -0.00509239       8
H               4.96897000      5.86271000      2.24279000      0.01212330      0.04148150     -0.03071590       1
H               4.60930000      3.46645000      2.92399000     -0.01935880      0.02535470      0.03600930       1
O              18.82120000      4.16876000      0.78898000     -0.01790740      0.02225990      0.05217860       8
H              17.47120000      3.69838000      2.02100000      0.03190780      0.00964145     -0.01973080       1
H              18.41810000      3.26271000     -0.64323300     -0.00774529     -0.02487290     -0.03077320       1
O               3.80881000      3.64489000     12.49820000      0.15372100      0.03118850     -0.02265230       8
H               5.17654000      3.30719000     10.98190000     -0.05756040      0.01610850      0.05656570       1
H               2.39807000      2.93323000     11.99070000     -0.09397050     -0.04531860     -0.03727380       1
O              12.02520000      8.43795000      3.08488000      0.04124920      0.05069930      0.08913380       8
H              13.65190000      8.88024000      4.26079000     -0.02212280     -0.02216050     -0.04824330       1
H              11.57880000      6.77166000      3.79560000      0.00311465     -0.00271332      0.00426135       1
O              24.35660000      9.35863000     19.06720000      0.07040810     -0.00509889     -0.05413660       8
H               0.79499500      8.50453000     17.41850000     -0.02942400      0.02752260      0.05980550       1
H              22.70790000      8.83418000     19.26760000     -0.03783870     -0.02747200     -0.00195376       1
O              16.46970000     13.16620000     21.63750000     -0.03956380      0.05789400     -0.07080850       8
H              16.44150000     12.05230000     22.91870000      0.02337970     -0.04384080      0.06599070       1
H              18.03060000     13.83790000     21.04010000      0.01275750     -0.01423370      0.00270689       1
O              21.68360000     12.45330000     13.11910000     -0.03185190      0.00858769      0.01985170       8
H              23.25750000     12.28700000     12.40060000      0.04975980      0.01252310     -0.02427110       1
H              21.38780000     10.68830000     13.22800000     -0.02077180     -0.02237310      0.00367390       1
O              13.48950000     23.46650000     12.93290000      0.01249200      0.00797405      0.01159890       8
H              15.01880000     24.11780000     12.20300000     -0.01305470      0.00429127     -0.00253841       1
H              14.15370000     22.98140000     14.56570000     -0.01291740     -0.00645332      0.00174208       1
O              11.27060000     21.19040000      8.68498000     -0.03922530     -0.03397200     -0.07105120       8
H              10.62080000     20.82500000     10.25070000     -0.04689810     -0.03217080      0.04095440       1
H              12.50150000     22.05560000      9.41808000      0.08817100      0.06440270      0.02207010       1
O              23.57990000      7.89629000      5.94288000      0.06185920      0.02332160      0.03940080       8
H               1.67654000      1.09586000      1.81218000     -0.03080080      0.02807720      0.01422940       1
H               1.05667000      8.78660000      6.14717000     -0.07124690     -0.03215030     -0.01084260       1
O               9.79452000     16.98980000     11.76070000      0.09792320     -0.07002220     -0.02328760       8
H              10.07730000     15.37270000     12.86080000     -0.02051180      0.05452300     -0.03274180       1
H              11.52840000     16.71360000     10.52300000     -0.08302220      0.01100630      0.05117540       1
O               7.95706000      6.26295000     24.37860000     -0.00409406      0.00951063      0.01576380       8
H               7.88125000      7.29515000      1.59285000      0.01608050     -0.01456240     -0.01997860       1
H               9.58984000      5.45765000     24.14160000     -0.01047080      0.00594311      0.00664585       1
O              17.76100000      6.35360000      5.69508000      0.08154230      0.01633720      0.04172590       8
H              16.21090000      5.72358000      6.11129000     -0.04716430     -0.02092210      0.01985170       1
H              18.74800000      6.29729000      7.42478000     -0.03379340      0.00463651     -0.06503570       1
O               7.52686000     22.51320000     14.61810000      0.00109932     -0.03421510      0.02385530       8
H               7.59836000     20.72360000     15.51780000      0.02455300      0.06042380     -0.03384040       1
H               9.19096000     23.26250000     14.22680000     -0.01939310     -0.03077000      0.01263210       1
O              23.28500000     24.21080000     21.70580000      0.10869600      0.03738550     -0.00214430       8
H               1.95888000     24.03910000     21.03120000     -0.09452450      0.00567105      0.03091410       1
H              22.82020000     22.66820000     21.01110000     -0.01425840     -0.03921110     -0.01282190       1
O               1.28093000     12.88750000      6.18111000     -0.04146490     -0.01722060      0.10951000       8
H               1.74339000     13.87660000      7.76576000     -0.00240591     -0.02363480     -0.03867050       1
H               1.99156000     13.50230000      4.79926000      0.04376360      0.04386130     -0.07052250       1
O              12.24670000     10.04820000     19.50510000     -0.13679400     -0.02813330     -0.03370940       8
H              12.99400000      8.61896000     20.03420000      0.02021750     -0.08385620      0.02043870       1
H              13.56080000     10.97260000     19.68280000      0.11918700      0.11096500      0.02172710       1
O              20.85020000     19.45370000      2.43338000      0.01525030      0.05543680     -0.04134150       8
H              21.34310000     20.15440000      3.97629000      0.02442440      0.02347270      0.01810000       1
H              20.01210000     18.14770000      3.12648000     -0.04330070     -0.07691890      0.01809900       1
O              16.37730000     21.50700000     20.20870000     -0.05259040      0.03219050      0.03850520       8
H              15.27490000     20.12720000     19.90630000      0.00562360     -0.01627050     -0.01573060       1
H              17.94450000     21.50310000     19.49160000      0.04298660     -0.01511370     -0.02749850       1
O              20.21500000     14.64710000      5.06402000     -0.05447750      0.01430330     -0.01552650       8
H              19.39300000     14.51460000      6.69137000      0.02780080      0.00026071      0.00271446       1
H              21.96230000     14.41340000      4.91238000      0.02828390     -0.01196880      0.02293140       1
O              15.04340000     19.56380000      4.38781000     -0.05946350     -0.13758800      0.02685680       8
H              13.72280000     19.70630000      5.69359000      0.00792326     -0.01514210     -0.00226683       1
H              15.35160000     21.14750000      4.37692000      0.04723190      0.15947700     -0.01976870       1
O              17.89010000      7.96153000     13.86640000     -0.07420460      0.03540230      0.02323660       8
H              17.41640000      6.29111000     14.53390000      0.00242731      0.01941090     -0.00144698       1
H              15.61140000      9.72074000     14.63030000      0.07681590     -0.03488950     -0.01990350       1
O               3.38738000     14.31920000     11.06640000     -0.09683070     -0.07785850      0.01604880       8
H               3.60630000     15.95110000     11.01140000      0.00742744      0.12355600      0.00324822       1
H               4.88148000     13.69150000     10.62340000      0.08536450     -0.04833600     -0.01780870       1
O              12.10320000     15.00020000      3.65508000     -0.07451520      0.06756430      0.15831700       8
H              12.47450000     16.82800000      4.07526000     -0.00943671     -0.04849100     -0.00843284       1
H              12.87520000     14.76930000      2.27770000      0.08883060     -0.02875840     -0.15311000       1
O              16.07300000      1.22142000      8.55840000      0.05929800     -0.04837460      0.07622040       8
H              17.20360000     23.97060000      8.60981000     -0.02581650      0.02263670     -0.03275940       1
H              16.70860000      1.49411000     10.40080000     -0.02633930      0.02562320     -0.05480060       1
O              21.15980000     18.74490000     20.87410000     -0.06142760     -0.01472650      0.06727140       8
H              20.78410000     17.24870000     19.91960000      0.01087210     -0.00706272     -0.01368180       1
H              19.85780000     18.38620000     22.42800000      0.05966540      0.02410040     -0.05823140       1
O              20.71490000     13.72680000     18.30610000     -0.04399790      0.04554600      0.00995503       8
H              21.00920000     13.69420000     16.55530000     -0.00107181      0.00308271     -0.03657440       1
H              21.84350000     12.53950000     18.81580000      0.04762540     -0.04268320      0.02699050       1
O              14.65470000     12.53080000     14.87080000      0.14940400      0.04746210      0.10857800       8
H              13.33920000     11.83710000     14.30510000     -0.16684400     -0.07069750     -0.07491140       1
H              14.40740000     12.40910000     16.75460000      0.00947040      0.00795343     -0.04002430       1
O               6.58580000     10.61790000     21.54800000     -0.03297260     -0.01282520      0.03591630       8
H               8.01968000     10.37770000     20.44170000     -0.00282926     -0.01688430      0.01225530       1
H               6.02963000      9.19560000     22.76070000      0.03725960      0.03143860     -0.05346210       1
O              18.59660000      2.14215000     15.75640000     -0.02743330      0.02419410     -0.10712400       8
H              19.27290000      3.11795000     13.43700000     -0.00291846     -0.04009050      0.06544700       1
H              20.10500000      2.18294000     16.64150000      0.03402900      0.00740918      0.01660080       1
O              20.95540000      4.48961000     19.92000000      0.15272700     -0.01187320     -0.02867590       8
H              22.02030000      3.08292000     20.54110000     -0.04076640      0.01090260      0.00208985       1
H              19.35890000      4.82962000     20.15050000     -0.10897300     -0.00026842      0.02664670       1
O              20.62910000      3.24201000     10.97300000     -0.02730070     -0.02141390      0.01169120       8
H              20.79750000      2.13435000      9.53293000      0.00405071      0.00753887      0.00363370       1
H              21.61790000      4.73356000     10.74180000      0.02528310      0.02593580      0.00537052       1
O              13.97400000     13.12970000      9.04878000      0.01259290      0.00784185     -0.05967990       8
H              13.85110000     11.31980000      8.90330000     -0.01019570     -0.01605860      0.02165210       1
H              14.23390000     13.36250000      7.17293000     -0.01313830      0.01217730      0.03566480       1
O              16.99220000     23.63150000      0.47133700     -0.00010844      0.06470300      0.10404500       8
H              17.86290000     22.19010000      0.78445800      0.03896180     -0.05424470      0.01739750       1
H              16.41970000     23.39630000     23.27750000     -0.03997400     -0.01780110     -0.11849600       1
O              23.50950000      2.32550000      2.65087000      0.05555290     -0.05401080     -0.03622170       8
H              23.46150000      3.74100000      1.41949000     -0.01144840     -0.01793690      0.00997955       1
H              23.15020000      0.59923500      1.85251000     -0.02013230      0.04514330     -0.00475328       1
O               7.36459000     11.16160000     13.76460000      0.14518800      0.13631200     -0.04920810       8
H               8.69294000     10.71400000     12.49040000     -0.04273610     -0.00542057      0.01617800       1
H               6.30838000     10.00400000     14.10760000     -0.09976990     -0.12971700      0.02753900       1
O               1.62445000     20.38030000     16.87350000      0.02458340      0.05696350      0.03263920       8
H               2.86512000     21.90240000     16.96370000     -0.04161140     -0.04647060     -0.00554773       1
H              24.65600000     20.77380000     18.17080000      0.02169960     -0.01122280     -0.02581020       1
O              10.30280000      5.82305000     12.67260000      0.20377800     -0.04171510      0.10238400       8
H               8.87753000      5.41347000     12.15890000     -0.20117500     -0.04365230     -0.07926970       1
H              10.46680000      2.68977000     13.66780000      0.00559281      0.08658230     -0.02528100       1
O               5.63883000     22.25530000      5.32697000     -0.16798900     -0.10045000     -0.01264750       8
H               4.15185000     23.22890000      5.80149000      0.01852530     -0.00125972      0.00402704       1
H               6.97262000     23.12710000      5.32649000      0.14614400      0.10396100      0.01008850       1
O              19.86480000     21.12550000      8.65226000     -0.00080617     -0.00636098      0.01936320       8
H              19.97790000     21.09520000     10.65930000     -0.00204970     -0.02976010     -0.06849420       1
H              19.67770000     19.49490000      7.59975000      0.00178053      0.03755090      0.05967030       1
O              10.43090000      1.08227000     24.02580000      0.11770200      0.01028470      0.01503310       8
H              12.09950000     24.39540000     23.66470000     -0.05405520      0.03552870      0.01708310       1
H               9.26450000     -0.01065400     23.44860000     -0.05909910     -0.05178460     -0.02236540       1
O               7.40086000      3.66909000      7.86106000      0.01391160      0.01657970     -0.03766120       8
H               9.14079000      4.15848000      7.43141000     -0.01557940     -0.00753833      0.01801420       1
H               6.56141000      4.59281000      6.44784000     -0.00423474     -0.00966054      0.02814810       1
O              17.50080000     11.21050000      2.17636000      0.06194100     -0.10483200     -0.01018530       8
H              19.05890000      9.54166000      2.32979000     -0.07939840      0.06615530     -0.00861734       1
H              18.31180000     12.12960000      3.46537000      0.01055100      0.03110040      0.01841390       1
O              23.68180000      7.44248000     11.20970000      0.04478550      0.00256323      0.00471270       8
H               1.13704000      7.54362000     12.25420000     -0.07174330     -0.00895706     -0.06258810       1
H              23.52770000      7.53156000      8.82470000      0.02389490      0.00906222      0.01778960       1
O               3.77460000     18.55460000     23.37250000      0.04945400      0.02607570     -0.04777480       8
H               4.12516000     17.33710000     22.04290000     -0.01504160     -0.00247952      0.00752838       1
H               2.78752000     18.00240000     24.65400000     -0.04109340     -0.03765550      0.03676230       1
O              12.65280000      3.23102000      4.82552000     -0.08398740      0.08463800     -0.18939200       8
H              13.15140000      2.44268000      6.13214000      0.04902750     -0.09601320      0.13058300       1
H              11.76400000      2.23097000      3.40465000      0.02997270      0.01616830      0.05173520       1
O               4.59282000     23.30220000     23.57240000     -0.09898590      0.01990650     -0.27830700       8
H               4.08968000     21.56630000     23.51850000     -0.00788868     -0.03157100     -0.02233530       1
H               5.08344000     23.29360000      0.65732900      0.11029000      0.01849450      0.29606800       1
O               8.42741000     10.06370000      7.97806000     -0.04889560      0.07208750     -0.06004490       8
H               6.95243000     11.75910000      7.03480000      0.07160940     -0.08145480      0.04150440       1
H              11.06280000      9.77069000      4.33412000     -0.02243580     -0.02297720     -0.01148900       1
