192
TotEnergy=-1103.02127000 cutoff=-1.00000000 nneightol=1.20000000 pbc="T T T" Lattice="25.05901000       0.00000000       0.00000000      -0.00000100      25.05901000       0.00000000      -0.00000100      -0.00000100      25.05901000" Properties=species:S:1:pos:R:3:force:R:3:Z:I:1
O               8.27625000      4.14501000     24.11260000      0.04273840      0.02822850     -0.05052320       8
H               7.50772000      2.82104000     24.83170000     -0.02618260     -0.07969650      0.03013200       1
H               7.34960000      5.40174000     24.86350000     -0.02180600      0.05001460      0.01547770       1
O              16.37900000      2.31173000      3.50023000     -0.06802130      0.04545530     -0.02913390       8
H              16.25730000      1.14424000      4.71949000     -0.00628192     -0.05357140      0.06166640       1
H              17.97870000      2.21803000      2.93811000      0.07692760     -0.00188515     -0.03122420       1
O              20.10960000     21.00570000      2.67541000      0.01971740     -0.02480340      0.08279480       8
H              21.36260000     21.22980000      1.53305000      0.05697380      0.00691922     -0.03922130       1
H              18.76990000     21.44510000      1.71866000     -0.07084760      0.01738430     -0.03910940       1
O               2.91238000      8.05302000      3.36219000      0.02222000     -0.05430850     -0.08813400       8
H               4.31905000      7.91598000      4.35461000      0.04522890     -0.00198217      0.03688080       1
H               1.83772000      9.00833000      4.20555000     -0.06718260      0.05832270      0.04941070       1
O               1.50347000      4.95029000     19.87860000     -0.04525290      0.09852310     -0.04680850       8
H               2.93701000      4.26071000     19.35580000      0.06911050     -0.05337320     -0.01289250       1
H               0.45987600      4.39536000     21.08670000     -0.02513120     -0.04580750      0.06118110       1
O              24.19680000     14.37350000      4.81974000     -0.03954420     -0.01897080      0.12335700       8
H              25.54180000     15.14800000      4.23915000      0.09026180      0.05042270     -0.04052610       1
H              23.31010000     13.78830000      3.53460000     -0.05167590     -0.03131390     -0.08368000       1
O               2.52711000     15.79320000     10.95530000     -0.00423409     -0.02473360     -0.03353570       8
H               1.00338000     15.69950000     11.85150000     -0.06336690     -0.05259050     -0.01291390       1
H               2.68792000     16.94250000     12.21850000      0.06964560      0.07779060      0.04293170       1
O               6.48134000      9.08430000     15.49140000      0.01183210     -0.05344830     -0.09047590       8
H               5.45215000     10.09530000     16.31970000     -0.07271980      0.06492240      0.05653930       1
H               7.84018000      8.83175000     16.51200000      0.05754470     -0.01065930      0.03503120       1
O               4.33946000     16.12740000      0.32696000     -0.01674910     -0.01711690     -0.05383480       8
H               4.54638000     14.34420000      0.01402700     -0.01458110     -0.00879747     -0.04663650       1
H               5.01692000     15.68730000      1.82192000      0.03316720      0.02438320      0.09644320       1
O              20.53280000     12.64960000      8.81059000      0.00338196     -0.00949826      0.03429460       8
H              21.88880000     13.30250000      7.84277000     -0.00346495      0.00577259     -0.02309430       1
H              18.85540000     12.74630000      8.15564000      0.00641873      0.00117884     -0.01703670       1
O              14.44390000     13.34410000     22.55520000     -0.03128320     -0.00935896      0.00861420       8
H              14.67230000     13.04660000     20.77100000      0.00216996      0.00600349      0.00144960       1
H              12.60300000     12.99480000     22.84050000      0.02522290      0.00397322     -0.00673350       1
O               9.45279000     12.10060000     24.11080000     -0.00081407     -0.01433550     -0.09335700       8
H               9.87361000     12.52110000     25.70850000     -0.00304064      0.00641521      0.07452570       1
H               8.07589000     10.91220000     23.76680000      0.00281871      0.01250370      0.01781200       1
O              13.67790000      6.55197000      2.87868000     -0.03519020      0.05841420     -0.02786600       8
H              14.83670000      5.51507000      3.56738000      0.04829740     -0.05967990      0.04111090       1
H              14.74240000      7.20928000      1.55767000     -0.01551840      0.00494822     -0.00823640       1
O               5.02316000      9.73437000     23.46470000      0.05540680      0.02779690     -0.03795600       8
H               3.96222000      9.76889000     22.03600000     -0.01944460     -0.00296266     -0.00641795       1
H               4.41546000      9.05064000     24.91670000     -0.04269870     -0.02612290      0.04824610       1
O              11.60110000      8.75426000     17.32170000     -0.10673800      0.08867370     -0.03820500       8
H              12.36090000      7.96039000     18.52470000      0.07212960     -0.07180620      0.09089620       1
H              12.19190000      8.48952000     15.73350000      0.03626530     -0.02074250     -0.05362600       1
O              12.02600000     18.45000000     12.34850000     -0.03292530      0.10330400     -0.03407180       8
H              12.83640000     18.11050000     13.78560000      0.04272210     -0.01599580      0.07631700       1
H              11.96830000     17.04090000     11.42770000     -0.00338635     -0.08251840     -0.05040330       1
O               4.01169000      4.68629000     12.51080000      0.02543260     -0.03698790     -0.00343178       8
H               3.00550000      6.06650000     12.17420000     -0.03425430      0.03434320     -0.00905974       1
H               5.38253000      5.39837000     13.40750000      0.01473560      0.00883711      0.01081300       1
O              12.88560000     19.61670000     18.10630000     -0.02200610      0.04142310      0.00441454       8
H              11.16510000     19.60480000     18.76300000      0.01430570      0.01039500      0.00019777       1
H              13.22630000     17.94850000     17.79110000      0.01632940     -0.05378450     -0.00456099       1
O              23.52690000      8.03402000     16.75550000      0.01318450      0.03243020      0.02040770       8
H              22.51480000      6.91189000     15.94080000     -0.05334110     -0.02094330     -0.06289460       1
H              24.09390000      6.65219000     17.70590000      0.04220500     -0.01157350      0.04090470       1
O               4.90093000     22.87920000     24.19400000     -0.04089020     -0.06461240     -0.09509190       8
H               3.96837000     20.73720000     23.42550000      0.02842200      0.09798970      0.01440220       1
H               5.13138000     22.25040000     25.76340000      0.01596450     -0.01727750      0.07556350       1
O              10.14220000      4.09581000     11.85810000     -0.00389234     -0.00915049      0.01723570       8
H               9.51599000      2.48879000     12.46130000      0.01097980      0.00281564      0.00279456       1
H               9.31482000      4.23609000     10.28760000     -0.00297064      0.00374828     -0.01916150       1
O               3.15737000     20.11550000     14.43780000     -0.01786780     -0.06661500      0.00293939       8
H               3.74628000     21.68030000     14.78060000      0.02666140      0.08620620     -0.00960689       1
H               3.06483000     19.68670000     16.18500000     -0.01064230     -0.02263400      0.00684589       1
O              14.43980000     13.78540000     17.09390000      0.08012310      0.06506290      0.07928220       8
H              13.23010000     12.99570000     16.34070000     -0.10592400     -0.07481100     -0.05908200       1
H              15.53830000     14.26520000     15.80570000      0.02476260      0.01418940     -0.02667730       1
O              21.95280000      2.43406000      1.90484000     -0.07535250      0.04917250      0.04482600       8
H              22.91150000      1.81601000      0.64530100      0.05560780     -0.03698070     -0.04289390       1
H              22.42640000      2.19639000      3.62307000      0.01605780     -0.01321830      0.00017155       1
O              12.02590000     24.01990000      0.95760000     -0.12319300     -0.09348520      0.04612670       8
H              12.93880000     25.20470000      1.70056000      0.06738040      0.08113580      0.03558070       1
H              10.78010000     23.60320000      2.68636000      0.05497970      0.01074990     -0.08031980       1
O              18.03670000     16.58720000     13.69470000     -0.12483500      0.02125830     -0.02564630       8
H              17.44390000     16.94050000     11.99300000      0.04037610     -0.01030460      0.01661810       1
H              19.42780000     16.26630000     14.58280000      0.08618890     -0.01324600      0.00893527       1
O               0.20025800     25.53940000     23.50410000     -0.03684400      0.02127330     -0.02153640       8
H               1.69221000     24.69300000     23.95980000      0.02779920     -0.01954330     -0.00029396       1
H              -0.26205800     25.12800000     21.77520000      0.00917709     -0.00486316      0.01648870       1
O               9.70163000      4.19275000      6.29005000     -0.05657700     -0.06154280      0.04228770       8
H              10.95590000      4.90280000      5.43952000      0.08175750      0.03203200     -0.05965920       1
H               8.91857000      5.64970000      6.86841000     -0.03008910      0.03520530      0.01078150       1
O              23.55480000     22.61790000     11.53450000     -0.05486220      0.07378270      0.02230550       8
H              24.94980000     21.72240000     11.30510000      0.09257670     -0.04445670     -0.00274847       1
H              22.42970000     21.55500000     10.73880000     -0.04054880     -0.02954170     -0.02177900       1
O              21.70030000     19.29970000      7.78661000     -0.00757559      0.11691500     -0.00319176       8
H              21.80380000     20.44290000      6.23678000     -0.00742906     -0.04949190      0.02715760       1
H              21.80430000     17.61720000      7.56757000      0.00811700     -0.06650460     -0.02916150       1
O              20.45600000     21.38410000     17.44200000      0.02536090     -0.07392090      0.05144800       8
H              19.86050000     21.33800000     15.85640000     -0.02537830     -0.04065430     -0.08613750       1
H              20.23350000     23.04270000     17.41730000     -0.00118029      0.11346700      0.03761090       1
O              12.62110000      7.19330000     22.69070000      0.06414880      0.04217680     -0.02675100       8
H              12.04940000      8.86063000     22.31740000      0.00045689      0.01104150      0.00593497       1
H              11.18070000      6.33241000     22.94710000     -0.06161200     -0.04960050      0.01849340       1
O              19.86460000     11.59240000     18.80560000      0.03357700     -0.01071730      0.08687410       8
H              21.03960000     10.51250000     18.05960000      0.01980990     -0.01757800     -0.02635050       1
H              18.87560000     12.39240000     17.69670000     -0.04531420      0.02916060     -0.05840790       1
O              18.47470000      2.15916000     17.20590000      0.01611760     -0.03154710     -0.02969330       8
H              16.70960000      1.88433000     17.33560000     -0.03560820     -0.04311540     -0.02245320       1
H              18.15930000      3.50656000     18.21680000      0.02596080      0.07614150      0.05421280       1
O              23.31510000     12.73330000     13.52140000     -0.00141156      0.02754260      0.01351880       8
H              24.10130000     11.18430000     13.79820000      0.02054950     -0.02912170      0.01667320       1
H              22.60790000     12.36370000     11.94180000     -0.02388290      0.00533463     -0.02794110       1
O               7.50803000      2.80426000     18.11720000     -0.02773390      0.00453512      0.01967660       8
H               9.22299000      3.06254000     17.86110000      0.03205040      0.00550216     -0.01495210       1
H               7.37689000      3.14975000     19.89950000     -0.00396437     -0.00188865      0.00296572       1
O              15.78670000      2.82119000     10.35990000      0.08890330     -0.02378740      0.03921810       8
H              14.13430000      2.60151000     10.06960000     -0.08404480     -0.00829889     -0.01734040       1
H              16.19250000      1.38800000     11.52230000     -0.00448158      0.03069320     -0.02303390       1
O              13.50400000     16.49560000      2.33727000     -0.04388490     -0.06911670     -0.00495624       8
H              14.31180000     17.94630000      2.77997000      0.03746400      0.04406460     -0.00215686       1
H              13.97710000     15.52440000      0.85121300      0.01132980      0.02555750      0.00316746       1
O              14.25550000      7.44402000     12.71760000     -0.04515690      0.06489930      0.01971420       8
H              15.53350000      6.38172000     12.46470000      0.09335140     -0.04584220     -0.00341525       1
H              13.13270000      6.31134000     11.99010000     -0.05077440     -0.01539480     -0.01178770       1
O              24.63530000      7.61318000     10.74230000      0.03026290     -0.01689340      0.02079100       8
H              23.50550000      8.22893000      9.58648000     -0.03199330      0.03681630     -0.03957660       1
H              23.94740000      5.95406000     10.76290000      0.00033127     -0.02002910      0.01769430       1
O               9.68348000     22.88950000     20.73300000     -0.03637430      0.00659503      0.02753330       8
H               7.92637000     22.88690000     21.31770000     -0.00864238     -0.00821878     -0.02955760       1
H              10.01870000     23.34430000     22.46080000      0.04107730      0.00286288      0.00679066       1
O               4.62941000     16.64550000      5.83129000      0.01945510      0.05966460     -0.07887590       8
H               3.63868000     16.38050000      7.17535000     -0.04544800     -0.02451270      0.07781290       1
H               3.89171000     18.34680000      5.29257000      0.02993410     -0.03409040      0.00641800       1
O               9.75290000     22.19500000      6.66038000     -0.05418810      0.05467870     -0.07793340       8
H              10.36270000     20.71790000      7.10461000      0.03376340     -0.12317200     -0.00215137       1
H              10.31110000     22.83350000      8.11939000      0.01869560      0.07262500      0.07516350       1
O              23.50840000     12.03960000     24.78250000      0.06723090     -0.00155753      0.13411300       8
H              23.16710000     10.75510000     26.16090000     -0.01482890      0.01239760     -0.05905520       1
H              22.83600000     12.16150000     23.26390000     -0.05659210     -0.01622840     -0.07838040       1
O              23.26020000      1.17566000      7.02014000     -0.06241720     -0.05345900      0.01401110       8
H              23.04140000     -0.48738100      8.00019000      0.01364830      0.05151980     -0.02182080       1
H              24.91880000      1.67872000      7.14289000      0.05182920      0.00718419      0.01019620       1
O              15.48720000     21.24530000      7.83354000     -0.07599270      0.00040358      0.07120370       8
H              14.06190000     20.70010000     10.13290000      0.06496310      0.00450432     -0.08090500       1
H              17.12380000     20.50450000      7.67425000      0.00795435     -0.01269760      0.01792230       1
O              21.69830000      3.45899000     13.07290000     -0.04953880      0.01106580      0.07685360       8
H              20.51780000      3.15869000     14.76120000      0.03680990      0.01500570     -0.05886690       1
H              21.60410000      1.79167000     12.50270000      0.00993411     -0.02836910     -0.01801760       1
O               4.57067000      0.02400700     15.04970000     -0.02070670     -0.03110700     -0.04597700       8
H               5.40182000      0.90344200     16.28130000      0.03117290      0.02399820      0.04908890       1
H               4.61103000      1.23392000     13.69780000     -0.01447870     -0.00003170     -0.00546334       1
O              22.57860000     16.66760000     19.82740000      0.09483860     -0.08336780      0.07612630       8
H              21.85270000     17.89590000     19.02560000     -0.07098780      0.08981270     -0.06600370       1
H              21.82850000     15.05270000     19.91000000     -0.02057400     -0.00554740     -0.01051280       1
O              20.94600000      7.85833000      2.04590000      0.04265830     -0.00228169     -0.10918100       8
H              21.07060000      6.18049000      1.17271000      0.00383251      0.02853710      0.01530790       1
H              20.27030000      7.40773000      3.50023000     -0.04299470     -0.02398070      0.10040300       1
O               7.05797000     12.01350000     11.19640000      0.02077650      0.00004547     -0.02498170       8
H               5.92547000     13.25190000     10.47390000     -0.00677515     -0.00886969      0.02566450       1
H               6.61487000     11.09740000     12.72090000     -0.01136660      0.00817369     -0.00287753       1
O               1.50257000     19.46520000     22.50810000      0.02775500      0.07693170      0.00524205       8
H               0.48012400     18.25830000     21.91500000     -0.08798710     -0.04519870     -0.06636680       1
H               2.24422000     18.17120000     23.36510000      0.05474310     -0.04402390      0.06233270       1
O              19.69790000      5.56412000      7.11517000      0.05120980     -0.00214831     -0.04009880       8
H              20.90980000      4.17567000      7.25462000     -0.00670207      0.00874692     -0.00585849       1
H              18.71400000      5.26381000      8.49059000     -0.04257310     -0.00716870      0.04728820       1
O              17.81650000      6.60357000     20.85790000      0.04515000      0.07641560      0.01600650       8
H              16.13390000      7.17798000     21.36770000      0.01349300     -0.00706587     -0.00035370       1
H              19.02110000      8.32330000     21.17760000     -0.06007730     -0.07580670     -0.01731990       1
O               4.42414000     22.14080000      4.85322000      0.08650250     -0.05849150      0.02771480       8
H               3.80948000     23.67970000      4.68437000     -0.06640420      0.09495420     -0.01833470       1
H               6.07524000     22.81080000      5.56297000     -0.02036140     -0.03930090     -0.00918523       1
O               9.65276000     13.47930000      4.27454000     -0.03202040      0.01911480      0.02598830       8
H               8.19825000     14.38820000      5.19231000      0.04816360     -0.01419410     -0.02765870       1
H              11.20230000     14.51980000      4.23973000     -0.01982640     -0.00039374      0.00313428       1
O               6.98627000      9.12840000      6.66672000     -0.00825496     -0.01233470      0.01044630       8
H               7.05057000     10.15180000      8.16264000     -0.00769531     -0.00396439      0.02513100       1
H               7.90293000     10.23920000      5.64414000      0.02227230      0.01249960     -0.03212240       1
O               2.39542000     11.54740000     18.45590000      0.12947700     -0.03586870      0.01976250       8
H               1.62163000     12.99990000     18.51040000     -0.06137450      0.10219700      0.00168885       1
H               1.35840000     10.27970000     18.11760000     -0.06740740     -0.06804690     -0.02262470       1
O              15.98050000     11.94280000      5.35722000      0.06674470      0.06990270      0.03493240       8
H              16.30590000     12.86310000      3.85262000      0.00586586      0.01176410     -0.00451320       1
H              14.88670000     10.80430000      4.83750000     -0.07261220     -0.08416300     -0.02735030       1
O              13.68020000     25.16890000     17.32900000      0.06798510     -0.02305140     -0.04701190       8
H              12.26930000     25.74540000     18.20090000     -0.02838190     -0.02690570      0.01549830       1
H              14.03980000     23.35610000     16.75590000     -0.03821590      0.04669030      0.03541760       1
O              16.63500000     21.62900000     23.99470000      0.04857830      0.00697936      0.00643841       8
H              14.95380000     21.76580000     24.32070000     -0.06406360      0.01626350      0.02088540       1
H              16.60390000     20.59050000     22.57970000      0.01046750     -0.02075240     -0.03067660       1
O               9.73684000     23.62740000     12.48070000     -0.02238360      0.03909630     -0.00835540       8
H               8.14266000     23.24940000     13.22020000     -0.03744740      0.03394180      0.00462915       1
H              10.07760000     21.99480000     12.86150000      0.05758560     -0.07498220      0.00318723       1
O              13.14900000     13.05650000     10.38780000     -0.05583460      0.04788320      0.07498710       8
H              12.02520000     11.71550000     10.75870000     -0.00385398     -0.00972733     -0.00290791       1
H              14.22800000     12.64340000      9.17650000      0.05710070     -0.03080060     -0.07118890       1
O               3.45914000      2.43545000      7.30485000      0.02747330      0.08462170      0.03460520       8
H               5.11861000      2.05930000      7.93615000      0.00260983     -0.02363750     -0.00445251       1
H               3.70473000      4.31046000      8.07273000     -0.02933890     -0.06214350     -0.03249090       1
