192
TotEnergy=-1103.46040000 cutoff=-1.00000000 nneightol=1.20000000 pbc="T T T" Lattice="25.03766000       0.00000000       0.00000000      -0.00000100      25.03766000       0.00000000      -0.00000100      -0.00000100      25.03766000" Properties=species:S:1:pos:R:3:force:R:3:Z:I:1
O              25.82650000     -1.18198000    -35.52490000     -0.01544510     -0.01612630     -0.00502683       8
H              24.02600000     -1.60680000    -35.16410000      0.02879210     -0.00590471     -0.01042320       1
H              26.70990000     -2.64569000    -36.39940000     -0.02034640      0.01619940      0.01437060       1
O              51.87030000     49.38300000     -0.72148600      0.09185650     -0.04004640      0.02667190       8
H              50.32090000     50.07010000     -1.00955000     -0.05492150      0.03603280     -0.02980730       1
H              53.10600000     49.45610000     -2.10332000     -0.02943750      0.00692239      0.00458182       1
O              13.59560000      1.26344000     18.29250000      0.02496450      0.01794030      0.02653880       8
H              13.97340000      2.69857000     19.52290000     -0.02237900     -0.01874880     -0.01406600       1
H              14.80440000      0.03812100     18.92560000     -0.00715242     -0.00349829     -0.01218860       1
O              -3.82295000    -13.20810000     -1.98162000     -0.06188010      0.01107510      0.03208280       8
H              -2.61795000    -14.10930000     -2.78185000      0.05475220     -0.04368360     -0.04060980       1
H              -3.04038000    -11.70820000     -1.46143000      0.01325460      0.03084420      0.00559645       1
O               6.29293000     36.70560000     17.06140000      0.00620447     -0.01675120      0.04526420       8
H               6.33610000     35.95740000     18.84880000     -0.01502480      0.00536612     -0.02756940       1
H               6.41869000     35.16450000     16.09220000      0.00244925      0.00247032     -0.00598731       1
O              -7.35799000     12.37890000      6.68001000      0.02517840     -0.09411950      0.00058382       8
H              -7.86886000     13.97220000      6.67611000     -0.02719950      0.10624000      0.00074985       1
H              -8.49788000     11.56030000      5.50869000      0.00588157     -0.01201530     -0.00480624       1
O              44.88200000     30.85690000     13.37060000     -0.10805800      0.01183870      0.01387710       8
H              46.51120000     30.44370000     13.32340000      0.09565060     -0.02761400     -0.00330419       1
H              43.91210000     29.28470000     13.75170000      0.01033060      0.01551540     -0.00804630       1
O               3.17968000    -35.33140000      8.67142000     -0.04104610      0.04088010     -0.03049870       8
H               4.25159000    -36.66950000      8.88242000      0.03675760     -0.04335580      0.02045080       1
H               3.31853000    -34.08480000      9.95537000      0.00764028     -0.00440723      0.00606769       1
O              35.66500000    -36.03110000     17.86480000     -0.11374400      0.03791750     -0.01703500       8
H              33.90200000    -37.03720000     18.07150000      0.05511260      0.02352800     -0.02010160       1
H              36.98220000    -37.03700000     18.17030000      0.06643640     -0.05767680      0.02506630       1
O              10.36000000    -29.19820000    -24.98090000      0.07471130      0.01194140     -0.02184150       8
H              12.41250000    -29.31710000    -25.20120000     -0.06652940      0.00361217      0.01074910       1
H               9.93728000    -30.12240000    -23.50560000     -0.00115840     -0.01249450      0.00834940       1
O             -12.34080000      6.23449000      7.18419000      0.01740850      0.02421590      0.06037090       8
H             -11.38100000      7.27631000      8.50485000      0.00631365     -0.01602400     -0.04841590       1
H             -13.65680000      6.05318000      8.42206000     -0.02748860     -0.01724190     -0.01339380       1
O             -10.40060000     28.76900000     51.50670000      0.04911250     -0.00171512     -0.02299910       8
H             -11.91900000     27.47380000     51.84710000      0.03747600      0.00704164      0.00326387       1
H              -8.49562000     28.15750000     51.16020000     -0.08176760      0.00141777      0.01571150       1
O              11.51520000    -31.44030000    -17.87410000     -0.05711340     -0.05124910      0.08967580       8
H              10.78980000    -32.19230000    -19.35320000     -0.01249770     -0.00624608     -0.01873310       1
H              10.21810000    -32.40320000    -16.33270000      0.06588310      0.04821100     -0.06974830       1
O              27.91030000     15.32580000     39.57560000      0.02105680     -0.00164949      0.00233640       8
H              26.33820000     15.05340000     40.39590000     -0.01346130     -0.00508967      0.00373928       1
H              29.22400000     14.59630000     40.65890000     -0.01273240      0.00345397     -0.01188310       1
O               3.48590000      1.87886000      3.95851000      0.01532880     -0.01310910      0.01074180       8
H               4.64498000      0.67605900      4.96271000     -0.03633270      0.02206770     -0.03451600       1
H               2.65645000      1.32826000      2.35187000      0.02609310     -0.01385570      0.02353330       1
O             -34.38190000     26.30430000     33.63070000     -0.07903130     -0.02926540      0.03410620       8
H             -32.69500000     26.32310000     33.43910000      0.08283510      0.00788141     -0.02371650       1
H             -35.13170000     27.85830000     33.22520000     -0.00295580      0.02979230     -0.01254610       1
O             -33.76330000     11.89610000     23.89740000      0.01726260      0.00887104     -0.00796915       8
H             -34.72110000     11.35330000     22.49450000     -0.02010040     -0.00513635     -0.01230440       1
H             -32.10400000     12.19090000     23.05000000     -0.00763013     -0.00935342      0.02201230       1
O             -21.50770000     64.87530000    -21.76840000     -0.02639410     -0.02692810     -0.00100779       8
H             -21.36600000     65.07830000    -19.91340000     -0.01517240     -0.01150720     -0.01656720       1
H             -22.72780000     63.39460000    -22.23200000      0.04786000      0.04346100      0.02094370       1
O              70.33150000     22.25620000     39.15060000      0.03741080     -0.05481750      0.00687424       8
H              69.57420000     23.79230000     38.63690000     -0.02948100      0.00681966      0.02714140       1
H              69.95110000     20.97850000     40.56960000     -0.00597434      0.04596810     -0.03199260       1
O              60.25900000    -14.31540000      3.58637000     -0.02564320      0.05286950      0.01251820       8
H              59.21070000    -15.64310000      3.14409000     -0.02050230     -0.02990170     -0.01329120       1
H              61.93440000    -14.83320000      3.43818000      0.04150120     -0.02266360     -0.00120940       1
O              28.13360000     19.97150000    -12.90610000      0.01257240     -0.05288040     -0.00578076       8
H              29.98100000     20.07070000    -13.19130000     -0.01950060      0.00210079      0.01076400       1
H              27.82790000     18.07770000    -12.42440000      0.01052300      0.05527550      0.00455878       1
O             -16.54100000      6.46152000     64.55170000      0.00939375     -0.00407678     -0.01045550       8
H             -15.05090000      7.06540000     63.66780000      0.00025127      0.00718399      0.00877294       1
H             -15.87520000      5.27667000     65.78610000     -0.01049330      0.00215715      0.00069193       1
O              11.08270000      0.76301400      2.57923000     -0.00945684     -0.06328340      0.00712083       8
H              11.07330000     -0.02925800      4.43482000      0.00343237      0.01205990     -0.05762350       1
H              11.01520000     -0.79332800      1.31812000     -0.00415100      0.04203500      0.04452670       1
O              45.64640000      1.16185000     31.23460000      0.00629799     -0.07175420     -0.00898125       8
H              47.18600000      2.04818000     31.14600000      0.01372010      0.03203450      0.00188582       1
H              46.42970000     -0.66179700     30.83030000     -0.03156700      0.04870220      0.00580030       1
O              -2.34780000     64.45190000     34.42540000     -0.10911600      0.07118460      0.10756900       8
H              -3.64047000     63.67160000     33.63620000     -0.04749800     -0.03801460     -0.04142610       1
H              -0.89467000     64.14060000     33.82470000      0.15479000     -0.03650870     -0.06781590       1
O              10.09830000     40.35850000     12.42040000      0.00477932      0.02080000      0.03923100       8
H              10.21100000     39.10750000     11.16970000     -0.00000170     -0.02608610     -0.00512004       1
H              10.43570000     39.73700000     14.18720000     -0.00876176      0.00536739     -0.03162810       1
O             -14.27630000     19.15740000     19.54340000      0.00523436     -0.04618590     -0.03893560       8
H             -14.56480000     17.32790000     19.08050000      0.01115800      0.02742080     -0.00013648       1
H             -15.05370000     19.23910000     21.11720000     -0.01255660      0.01179040      0.03938260       1
O              28.19550000     34.50980000     51.09670000     -0.12430100      0.10868200     -0.04556530       8
H              29.10560000     33.23360000     51.48290000      0.09168060     -0.12164100      0.04568490       1
H              26.44630000     33.80320000     50.80230000      0.03015830      0.01282490      0.00413565       1
O               8.51877000     29.43740000     19.89510000      0.02631790      0.03792170      0.00622030       8
H              10.12830000     30.23210000     20.63510000     -0.03208490     -0.03246910     -0.00954992       1
H               8.18257000     27.84760000     20.65690000      0.00699911     -0.00716104      0.00548732       1
O               3.62332000    -24.86030000     18.81480000     -0.00636288     -0.00731046     -0.02307470       8
H               2.38196000    -25.10060000     17.36890000      0.02793360     -0.00709101      0.02272380       1
H               5.23374000    -25.57990000     18.25880000     -0.01199030      0.00629863     -0.00011197       1
O               0.81458200     19.89960000      1.76490000      0.04063680      0.00648517      0.00657464       8
H               1.93151000     18.64580000      2.64382000     -0.01541190      0.02465240     -0.02357050       1
H               1.83122000     21.43690000      1.12110000     -0.02559230     -0.03787330      0.01194160       1
O              -0.14580900      3.82297000     13.80280000     -0.00581638     -0.04046310     -0.02152970       8
H               1.08057000      4.56909000     12.66680000      0.00258113      0.01217420      0.00032071       1
H              -0.20586500      1.99613000     13.19500000      0.00621030      0.03467250      0.01986830       1
O             -36.51790000     55.19120000    -28.49020000     -0.00000231     -0.01183070      0.02436730       8
H             -35.60570000     56.27510000    -29.65060000      0.00363299      0.01100010      0.02310000       1
H             -36.01020000     54.99000000    -26.54660000     -0.00175188      0.00639080     -0.04064380       1
O               7.31717000     55.98160000    -23.01370000      0.01350030     -0.02753680      0.03886270       8
H               8.57135000     55.36420000    -21.76480000      0.00318025      0.01881810     -0.02390700       1
H               6.12454000     54.73120000    -22.37890000     -0.01718160      0.00353013     -0.01436340       1
O             -40.99960000     41.00390000      3.28115000     -0.07362540     -0.05336870     -0.02906570       8
H             -40.39810000     39.36600000      2.49111000     -0.00115164      0.02916320      0.02337090       1
H             -43.03900000     40.48060000      3.09338000      0.07142280      0.02668460      0.00934997       1
O              14.89410000     34.79640000     18.75810000      0.01050250      0.00118576     -0.06530660       8
H              16.72020000     35.12640000     18.58180000     -0.00388984     -0.00468418      0.00746199       1
H              14.58620000     34.58900000     16.82150000     -0.00194861     -0.00297834      0.05457810       1
O             -17.43760000    -14.62450000      8.64756000     -0.02137150      0.02027120      0.04849280       8
H             -16.71850000    -13.97140000      7.22412000      0.02762910      0.02932420     -0.05101080       1
H             -17.33930000    -16.34590000      8.29517000     -0.00290203     -0.04060960      0.00357125       1
O             -50.17000000      3.84013000     18.97650000     -0.00341415     -0.00380994     -0.08427830       8
H             -48.47090000      3.23692000     18.78680000      0.01336070     -0.00451504      0.02671520       1
H             -50.31890000      3.73910000     16.91240000     -0.01068020      0.01517240      0.05907860       1
O             -22.39880000    -17.97760000     35.09970000     -0.00617631     -0.01017820     -0.01963570       8
H             -20.55110000    -18.15260000     34.76760000     -0.02889320     -0.00504858     -0.00102121       1
H             -23.35610000    -18.65940000     33.61060000      0.02007880      0.01039220      0.02223500       1
O              17.59910000     16.64440000     26.20070000      0.06254820      0.11476400      0.02267580       8
H              17.43450000     17.19110000     27.96870000      0.00504423     -0.00001765     -0.00404400       1
H              16.72620000     15.25750000     26.11290000     -0.06730200     -0.11323500     -0.01432080       1
O             -18.41780000      0.08128400     33.35660000      0.00255228     -0.01357640      0.00692352       8
H             -16.62930000     -0.40065800     32.84720000     -0.02705380     -0.00619144      0.02327250       1
H             -19.05520000     -0.94524300     34.81570000      0.02513490      0.01900540     -0.03194020       1
O              41.37140000      8.85580000     35.01420000      0.01681100     -0.09624420      0.04488490       8
H              43.13170000      8.34321000     34.78760000     -0.01335000     -0.02906710      0.01959020       1
H              41.74520000     10.27570000     34.24960000     -0.00120647      0.12365100     -0.06341700       1
O              -4.80459000    -32.30590000     -7.43845000      0.01815840     -0.03351620      0.03060570       8
H              -4.57134000    -32.51320000     -5.52124000      0.00376946      0.00112960     -0.05298240       1
H              -3.94541000    -33.84830000     -8.37409000     -0.02210090      0.04084250      0.02148310       1
O              57.47560000    -19.71620000    -15.50340000      0.01037410      0.00328067      0.05773740       8
H              57.66330000    -19.56590000    -13.30630000     -0.01021900     -0.01980060     -0.07550900       1
H              56.99770000    -21.37760000    -16.23520000      0.00625875      0.01114700      0.02738620       1
O               9.03102000     -1.58363000     17.54610000     -0.00101608      0.05345010     -0.01832950       8
H              10.42420000     -0.29422500     17.57550000     -0.01732950     -0.02923670      0.00500333       1
H               9.61114000     -3.19852000     17.99680000      0.01738660     -0.02073270      0.01876510       1
O             -34.36380000     -3.82338000     49.49670000     -0.02933260      0.09641310     -0.04683860       8
H             -34.20150000     -3.40851000     47.60530000     -0.00624088     -0.01967630      0.03368830       1
H             -33.85430000     -5.42930000     49.67010000      0.03219150     -0.08655830      0.01061320       1
O              13.01040000    -15.78060000    -11.44950000     -0.12448000      0.01911890      0.12851900       8
H              12.67500000    -14.02930000    -10.93680000     -0.00317324     -0.02156740     -0.00894298       1
H              14.18500000    -15.67130000    -12.55150000      0.12445300      0.00328360     -0.11454900       1
O              20.17570000     19.07420000      9.69707000     -0.01285060      0.05787130      0.01424330       8
H              20.18860000     20.60350000     11.02480000      0.00647833     -0.06314460     -0.02537780       1
H              21.08350000     17.56250000     10.10450000      0.01033670      0.00591471      0.01364770       1
O              15.93670000     21.02900000     -5.73638000     -0.00692654     -0.01320660     -0.01126470       8
H              14.31360000     20.38070000     -6.27101000     -0.01195830      0.01091710      0.01027000       1
H              16.90480000     19.59810000     -6.32670000      0.01827810      0.00548691      0.00223570       1
O              22.04530000     46.67090000     29.76300000     -0.16642800      0.05176770      0.10446400       8
H              22.07500000     45.94070000     31.48480000     -0.02081770      0.00710918     -0.01250790       1
H              23.42910000     46.06190000     29.30500000      0.18181400     -0.06851380     -0.08805610       1
O             -10.08140000      9.00829000      3.10750000      0.01649280     -0.00568888     -0.05968720       8
H              -9.69785000      9.75310000      1.24651000     -0.00383921     -0.02948060      0.06298900       1
H              -9.99892000      7.07765000      3.06638000     -0.00596789      0.04141270     -0.00607706       1
O              16.70080000    -23.51540000     13.98520000     -0.00328597     -0.00253333     -0.07907410       8
H              15.93750000    -23.60540000     12.10170000      0.02071780      0.00330897      0.06044360       1
H              15.42680000    -22.92760000     15.09920000     -0.01625040     -0.00351692      0.01164490       1
O              -2.69370000     14.15430000     39.70350000     -0.02038030     -0.06118480     -0.02079210       8
H              -3.43490000     12.40620000     40.23890000      0.01840160      0.04498990     -0.00876006       1
H              -2.61304000     13.96760000     37.78610000      0.00102590      0.01091830      0.03622780       1
O              47.20090000     41.88730000     -1.48800000     -0.02353830     -0.05860320     -0.07737210       8
H              48.29360000     42.90780000     -0.73704400      0.07246370      0.06362500      0.04426070       1
H              45.83950000     41.79480000     -0.42115600     -0.05009120      0.00027083      0.03456370       1
O              24.66270000      8.89519000    -29.78400000      0.02862950      0.07562860     -0.02507940       8
H              26.26860000      9.42540000    -30.68260000     -0.03763590     -0.01461310      0.02551300       1
H              24.72360000      7.15940000    -29.77550000      0.00502887     -0.06171180     -0.00323605       1
O             -13.65030000     48.51510000      7.25307000     -0.10996900     -0.12981800     -0.01852160       8
H             -12.38060000     49.50550000      7.47958000      0.12329500      0.07787740      0.03179730       1
H             -13.23460000     46.49560000      7.63241000     -0.01696930      0.06354090     -0.02034130       1
O               8.72820000    -28.96040000     37.58110000      0.05176500     -0.08113790      0.06790980       8
H               9.45679000    -30.87650000     37.60360000     -0.03009850      0.06677500     -0.01201260       1
H               9.23827000    -28.69490000     39.50610000     -0.02679690      0.01379340     -0.06236240       1
O              -0.35920400     29.72400000      5.87085000     -0.00519209      0.01445880     -0.00089540       8
H               0.85279100     28.32840000      5.49003000     -0.00370118      0.03316260     -0.01485660       1
H              -0.59331700     31.14450000      4.61870000      0.01287870     -0.04349360      0.01578370       1
O              -8.43936000     -7.44397000      6.31827000      0.03136430     -0.01080960     -0.00748411       8
H             -10.25790000     -7.38286000      6.41505000      0.00792193      0.01262290      0.02517300       1
H              -7.22555000     -6.89246000      7.71622000     -0.03438830      0.00308999     -0.01419800       1
O              -5.01996000      9.52605000     17.10450000      0.01362920     -0.03257560     -0.00429537       8
H              -3.52096000      9.36648000     18.27560000     -0.02490380     -0.00610746     -0.02386080       1
H              -5.27085000      7.84765000     16.06100000      0.01642700      0.04354770      0.02170260       1
O              23.09880000    -17.53780000      1.20129000      0.00698055     -0.00917392      0.00687069       8
H              22.41740000    -19.06410000      0.52343100      0.01003260     -0.01909960     -0.00545222       1
H              21.80780000    -16.40620000      0.74333600     -0.01247750      0.02747980     -0.00167943       1
O              22.91710000      2.42521000     48.52240000     -0.03733330     -0.02418840      0.08150880       8
H              21.40490000      1.47410000     49.37060000      0.03394510      0.02146390     -0.02027920       1
H              22.56040000      2.42443000     46.82740000     -0.00299335      0.00352617     -0.05404660       1
O              18.83460000     25.11440000     50.62220000     -0.01267820     -0.02572590     -0.00243554       8
H              18.73800000     24.93890000     52.42750000      0.00916340      0.00665767      0.00690190       1
H              18.01350000     23.46860000     50.11210000      0.00872690      0.02606570      0.00393920       1
O             -19.60210000      8.64815000     21.25790000      0.03735020     -0.07275000     -0.02627090       8
H             -18.85820000      6.78846000     21.48000000     -0.01734280      0.05983340     -0.02400500       1
H             -19.97150000      9.00196000     22.93400000     -0.01724050      0.02145440      0.03846170       1
