192
Lattice="24.53141 0.0 0.0 0.0 24.53141 0.0 0.0 0.0 24.53141" Properties=species:S:1:pos:R:3:force:R:3 TotEnergy=-1102.11266 cutoff=-1.0 nneightol=1.2 pbc="T T T"
O        6.35362000       8.52707000      16.25170000      -0.06284550       0.00291918       0.06919460
H       11.70920000       6.43977000      21.50560000      -0.00442787       0.00403022      -0.00556427
H        4.57501000       8.47453000      17.83220000       0.06872690       0.00495502      -0.07499290
O       12.09420000       0.12915800      12.89340000       0.04056260      -0.06358930       0.00523582
H       12.98330000      23.12490000      11.97660000      -0.02002540       0.04568930       0.02331960
H       12.02740000       1.48623000      11.77540000      -0.00488619       0.01785910      -0.02508380
O       19.12110000      16.59360000      17.93970000      -0.02646630      -0.03087000       0.01554920
H       18.03680000      16.91460000      16.46380000       0.00920741      -0.01450270       0.02294160
H       18.46220000      14.98150000      18.79110000       0.01286630       0.04129760      -0.04138130
O        2.57362000       1.45297000       0.62742600      -0.05352820      -0.00015886       0.00021362
H        3.10726000      24.32861400      24.51660000       0.00140866       0.00909838      -0.00098146
H        0.61389200       1.40389000       0.45648000       0.05027430      -0.00935138       0.00339822
O        6.84724000      14.07880000      23.27120000       0.00757709       0.10494600       0.01240780
H        8.05792000      14.09240000      21.86670000      -0.00254517       0.00118241       0.00859445
H        6.80819000      16.38420000      23.80516700       0.00020508      -0.11225400      -0.02408290
O       14.27280000      14.78210000      12.11230000      -0.03442560      -0.01444650      -0.00737795
H       12.42040000      14.31670000      12.50770000       0.04331120       0.00153020      -0.01383070
H       14.98240000      13.60520000      10.84090000      -0.01717350       0.01438730       0.02055570
O        1.46550000       6.06860000      13.14400000      -0.06566940      -0.13995300      -0.01402890
H        0.98470400       7.48934000      13.91940000      -0.02034540       0.07872690       0.04030830
H       24.26906600       4.78585000      13.73830000       0.08287330       0.06054830      -0.02588530
O        3.30565000      22.96230000      11.42040000      -0.08950430       0.02685380       0.02002450
H        3.60901000      22.49890000       9.68169000      -0.01732080      -0.00060988       0.00114534
H        0.99712400      23.43310000      11.84150000       0.10718600      -0.02438180      -0.02617320
O       11.18490000      13.89500000      19.69020000       0.02086530      -0.10094700      -0.07120560
H       11.33900000      11.78020000      18.88110000      -0.01127060       0.08805220       0.04407810
H       11.99770000      14.59190000      18.15180000      -0.01099500       0.00388025       0.02761070
O       14.36070000      20.12550000      10.63830000       0.01686580      -0.02620690       0.00699183
H       16.10370000      19.67310000      10.08440000      -0.02993750       0.00842435       0.00600719
H       13.75400000      18.55190000      11.49500000       0.01847180       0.01795140      -0.01062900
O       18.93300000      23.01900000      15.81230000      -0.00388273      -0.04739660       0.00066985
H       19.16310000      21.61390000      14.55260000       0.00013505       0.03361580       0.02286010
H       18.91180000      22.03100000      17.41040000       0.00176793       0.01266910      -0.02098550
O        9.18005000      24.00380000       6.65826000      -0.01857250       0.02351740      -0.03643850
H        9.77094000      22.71420000       7.67834000       0.02029480      -0.03192420       0.03180970
H        7.45406000      23.43310000       6.39198000      -0.00077931       0.01294800      -0.00236250
O       21.79100000      21.81840000      10.62550000       0.01891740       0.02798990      -0.00522996
H       21.25820000      23.51970000      10.07180000       0.00943732      -0.02294160       0.00212474
H       23.57050000      21.66980000      10.06580000      -0.03142170      -0.00745367      -0.00246169
O       21.99760000      12.55320000      21.72370000      -0.03540960       0.05754390      -0.02452890
H       20.82290000      14.27750000      22.03070000       0.04846910      -0.06285850      -0.00338964
H       22.57130000      12.62530000      19.90410000      -0.01321040       0.00363987       0.03260940
O       12.50910000      19.16360000      19.18840000      -0.00788085      -0.01127330      -0.01571370
H       11.55730000      19.19470000      17.54770000       0.01468220       0.01628450       0.03169030
H       12.81950000      20.81610000      19.86900000      -0.00465327      -0.00156863      -0.01615990
O       23.64880000      18.61970000       6.07029000       0.00945537       0.01568490      -0.01673950
H        0.28669000      18.87810000       4.60320000      -0.02826470      -0.01761180       0.02504230
H       23.19900000      16.86510000       6.27591000       0.01834260       0.00393962      -0.00715785
O       21.95470000       0.13704000      24.07060000      -0.04176230      -0.05529830       0.04307180
H       20.52490000       0.38826000       0.77402200       0.03588940       0.01087440      -0.02334180
H       21.80500000      22.72070000      24.17860000       0.01429780       0.05319580      -0.01737190
O       17.04950000       0.64846600       3.12984000       0.04019180       0.01665030      -0.00129839
H       15.39330000       0.32829800       3.74721000      -0.00636177      -0.01010680      -0.01033330
H       17.50990000      24.50650000       1.48807000      -0.03245420      -0.00536875       0.01443420
O       21.16870000       7.28505000      17.68630000      -0.03463920       0.02794760       0.09305140
H       20.25190000       7.49846000      19.77530000       0.03339980      -0.01820900      -0.10596200
H       20.24100000       6.01467000      16.77050000       0.00031472      -0.00301203       0.01337550
O        6.86613000       9.40547000       2.29168000      -0.23597800      -0.00337802      -0.11944500
H        8.30663000       9.77433000       2.74084000       0.21877500       0.04279320       0.06679330
H        6.49915000      10.78220000       0.90232400       0.01073160      -0.03755520       0.04149970
O       11.29190000       6.28883000       0.80346500      -0.05601910      -0.06299210      -0.04918800
H        9.91462000       4.66254000      24.43340000       0.06156130       0.06240600       0.02867170
H       11.36180000       7.56912000      23.96501800       0.00003133      -0.00252775       0.01314840
O        3.55222000      20.48090000      15.78630000       0.01889380      -0.06072130      -0.01716160
H        4.05432000      19.54440000      14.18650000      -0.01711500       0.03383190       0.02627280
H        4.12219000      19.06120000      16.88290000      -0.01879790       0.02063030      -0.00334745
O        4.83944000       2.96159000      19.12500000      -0.00238643       0.01759050      -0.01373640
H        3.92732000       4.57385000      19.47180000       0.01626480      -0.02904780      -0.01564330
H        5.21685000       2.88988000      17.26050000      -0.00526340       0.00787455       0.02732750
O        2.29239000       8.81401000      19.54840000       0.00739607      -0.00051571       0.02389730
H        3.11518000       9.25706000      21.17300000      -0.03391710      -0.00235695      -0.02150270
H        0.43829000       8.92246000      19.46840000       0.02224950      -0.00064946       0.00678338
O       23.08120000      12.87780000      15.29980000      -0.02435120       0.02097270      -0.02988190
H       21.48780000      12.27640000      14.44870000       0.03422040       0.00743230       0.01021770
H       23.37270000      14.55420000      14.48040000      -0.00757624      -0.03312480       0.02314950
O       18.14340000       8.50218000       4.17812000       0.00495054       0.01146530      -0.00573959
H        1.47399000       7.97097000       6.29982000      -0.07124090      -0.06975360      -0.01558530
H       18.73830000       8.19764000       2.38549000      -0.01794030       0.01751170       0.04660640
O       13.63440000      10.91010000      23.50760000       0.03029770      -0.18748100       0.19078100
H       13.84620000      11.16700000       0.96339000      -0.00994252       0.00702378      -0.07894500
H       13.45350000      12.20290000      22.63610000      -0.02575110       0.18256100      -0.10513800
O        8.55245000      19.99670000      15.72430000       0.01146320       0.04491350      -0.01227410
H        8.54954000      21.82280000      15.07460000      -0.00404159      -0.04208130       0.02518440
H        7.71883000      20.05280000      17.36310000       0.00453792       0.00469385      -0.01709280
O        2.11715000       6.74333000       0.96188400       0.04707010      -0.03538470       0.00241961
H        4.01072000       7.01313000       1.31732000      -0.04346060       0.00477393      -0.00167965
H        2.25987000       4.89096000       0.37995700      -0.00793027       0.03269050       0.01029650
O       19.40340000      16.60510000      23.96000000       0.01035390       0.03170220      -0.03575440
H       20.99570000      17.81310000      23.92963200      -0.05678810      -0.03761350      -0.00784259
H       18.13410000      16.90090000      22.49300000       0.04676740       0.01022570       0.04149760
O       17.41180000      22.70120000      21.77850000      -0.01399830      -0.01831420       0.01867620
H       15.87660000      22.15270000      22.77460000       0.02812640       0.02200570      -0.02768650
H       17.30680000      24.17790000      20.69830000      -0.01709370      -0.00957733       0.01882170
O        4.86074000      21.63620000      22.92350000      -0.05728570       0.04655600      -0.08849410
H        4.22480000      22.81620000      21.13680000       0.03684090      -0.05385720       0.08140090
H        6.52925000      22.14660000      23.38720000       0.00889745       0.00709146       0.00264214
O        8.93129000      22.76720000       1.20604000      -0.02451450      -0.13606100       0.05279270
H        9.21845000      22.61170000       3.03813000      -0.01278520      -0.00284998      -0.01076360
H        9.45519000      24.28930000       0.98622900       0.04160360       0.14056500      -0.03294270
O       18.34050000       8.66201000      23.45850000       0.07197590      -0.01515030      -0.03133220
H       16.85120000       9.33876000      24.02410000      -0.04903920       0.02012870       0.00908339
H       19.44050000      10.08260000      22.98800000      -0.00913749      -0.01045880       0.00402750
O       24.28850000       6.24293000       5.48254000       0.12811500       0.03965660       0.01151310
H        0.26364800       6.79356000       3.41701000       0.00399850      -0.03522910       0.03785400
H        1.05849000       4.69704000       6.30519000      -0.04055140       0.05670430      -0.03331380
O        1.61967000      12.76760000       0.56927800      -0.01831750      -0.03007320       0.02093780
H        1.81526000      11.29990000       1.74101000      -0.00530984       0.03197460      -0.02386030
H       24.39792800      12.58870000      24.44360000       0.02059150      -0.00095626      -0.00244681
O       18.47740000       4.55113000      11.89670000       0.00673573      -0.08017110       0.02525620
H       18.87830000       2.60859000      12.20090000      -0.01635510       0.07133150      -0.00460205
H       19.40940000       4.77867000      10.36180000      -0.00219731       0.00523589      -0.00999584
O       24.38731200      12.93150000       7.15603000       0.00376386       0.02173890      -0.00687513
H       22.55940000      12.69560000       7.52016000       0.03618140      -0.03287320       0.00309825
H        1.03717000      11.59230000       6.70203000      -0.03411500       0.00840016       0.01023380
O        2.87192000      15.81270000      11.17850000       0.00278317      -0.04658860      -0.02287780
H        1.33027000      14.91600000      11.62020000       0.00368728       0.01198290       0.00564520
H        3.39040000      14.48860000       9.91687000       0.00002595       0.03260800       0.01833640
O        6.56584000       2.01581000      13.81210000       0.02231710       0.00886475       0.04018090
H        7.80921000       3.36362000      13.41390000      -0.03781510      -0.02426230      -0.01643150
H        5.39073000       1.03803000      12.82100000       0.01169370       0.01422970      -0.01944790
O        8.69507000       8.01630000      10.71970000       0.00252342      -0.01213320      -0.00860242
H        7.05799000       8.13650000      11.63390000       0.04095950      -0.00479524      -0.00393701
H       11.57600000       6.57833000      10.80980000      -0.02891150       0.01755160       0.01999800
O       13.02680000      14.96770000       3.20928000      -0.07755760      -0.01955130       0.05052530
H       11.46850000      15.37560000       2.00128000       0.04680930      -0.01991100       0.05240450
H       12.09190000      14.18690000       5.24300000       0.03510310       0.03833230      -0.10181600
O        0.25320100      18.01300000       0.83279000       0.03790940       0.02354690      -0.01968350
H        0.77217600      16.27740000       1.25231000       0.00362715       0.01157750      -0.01052700
H        1.76842000      18.92880000       0.01919000      -0.03876230      -0.03159510       0.02248590
O        9.04956000      13.69680000      13.33280000      -0.06623110       0.00672175      -0.00360438
H        8.41672000      13.03120000      14.93240000       0.01726790      -0.00687363      -0.00757992
H        7.29802000      13.90000000      12.50520000       0.05469190      -0.00351107       0.00987636
O        9.38842000       2.12915000      22.47430000      -0.02223030      -0.00763187      -0.03764600
H       10.33670000       0.76145000      21.63310000      -0.00426080       0.02437880       0.00831394
H        8.09451000       2.59289000      21.11800000       0.01665480      -0.00550547       0.02457380
O       20.44920000      10.58210000      10.70520000      -0.00735221      -0.00897023      -0.05006320
H       18.95680000      12.11240000       8.06969000      -0.02655380      -0.00035000       0.03856760
H       20.79070000       8.93714000       9.83967000      -0.00632117       0.03319890       0.01928510
O       16.84960000      11.41890000      15.94280000       0.03214060      -0.04734450      -0.04345590
H       18.15050000      10.00720000      16.05730000      -0.02479340       0.03102470       0.01324960
H       16.76540000      11.35100000      14.05050000      -0.00268317       0.01357140       0.03241650
O       16.94060000      12.57770000       7.56355000       0.02738860      -0.03200290      -0.03292240
H       16.62900000      14.25570000       6.79237000       0.01505660      -0.02105230       0.00257077
H       17.00400000      10.95440000       6.13377000       0.00340822       0.01117870      -0.00805022
O        7.88807000      16.46410000       4.22766000       0.05019460       0.05134280       0.04865650
H        7.30110000      15.54290000       5.72382000       0.00540321       0.01525570      -0.00973890
H        9.17926000      17.82290000       5.10020000      -0.05959150      -0.05688840      -0.03496030
O       18.24770000       3.61322000      21.17270000       0.05026050      -0.01728340       0.03438900
H       19.75060000       2.54891000      21.71880000      -0.03173790       0.01273560      -0.02333370
H       18.57660000       4.93022000      22.43700000      -0.02168490       0.00475844      -0.01280520
O       12.75080000       2.13007000      18.18110000       0.13516000      -0.02659320      -0.04745160
H       14.04580000       1.60949000      15.54000000      -0.05920840       0.00280287       0.07058860
H       14.67360000       1.98566000      18.95930000      -0.07845010       0.00670044      -0.02288500
O       12.90330000       7.26718000      18.31170000       0.02525830      -0.02880220      -0.00370746
H       13.37040000       5.49513000      18.96770000      -0.01189750       0.03604570      -0.03355840
H       13.32680000       7.27979000      16.45040000      -0.01429430      -0.00038625       0.04044670
O        9.37558000      19.73630000       9.25991000      -0.01614270       0.01055760       0.07999480
H       11.08220000      19.19410000       8.86441000      -0.00298347       0.00589924       0.02063850
H        9.15616000      20.11370000      11.35370000       0.01782730      -0.02554370      -0.09739570
O        4.24014000       5.52484000       8.55983000      -0.01812500      -0.00855122      -0.06092510
H        5.01419000       6.85389000       7.50208000       0.00807542      -0.01498910       0.04548920
H        4.21427000       5.60195000      10.36810000       0.00449712       0.02098850       0.00561350
O        4.27601000       0.09970300       5.68285000      -0.00609138      -0.02212850       0.01539380
H        4.46108000       1.00040000       7.28655000      -0.00059680       0.01627720      -0.03402190
H        4.30073000       0.87914500       4.01669000      -0.00400284       0.01243120       0.02028620
O       23.12220000       1.95886000      16.90720000      -0.00878803       0.00974523      -0.00066722
H        0.06269000       1.19553000      16.16490000      -0.00962736      -0.01132420       0.01229310
H       21.83650000       0.74003900      17.43590000       0.02466760       0.00151644      -0.01652360
O       20.58620000       2.61029000       7.46212000      -0.07226470      -0.10022200       0.03294810
H       21.18590000       3.63744000       6.30846000       0.04546280       0.08297550      -0.07058660
H       19.33480000       1.70897000       6.28070000       0.02188390       0.01581340       0.03420850
O       14.40480000      20.68050000       1.64583000      -0.02876980      -0.01267820       0.00890743
H       14.76690000      18.93330000       2.18531000      -0.01126340       0.02453530      -0.00752361
H       12.57560000      21.00870000       2.00068000       0.03568680      -0.01164610      -0.01106510
O       12.91390000       3.34609000       5.27929000      -0.04357710      -0.01020720      -0.01730900
H       13.20480000       3.77936000       3.49267000       0.00403111       0.00917167       0.02263030
H       11.03950000       2.98322000       5.27702000       0.04135370       0.00392766       0.00672687
O        6.45327000      11.63820000       7.21530000      -0.04330210       0.04128920      -0.00637053
H        6.36304000      12.42720000       5.57207000       0.00363627      -0.01879990       0.00392596
H        7.78252000      10.48640000       7.30923000       0.02873800      -0.02608730       0.01115110
O       13.43020000       5.90004000      10.75260000       0.02024210      -0.02878500       0.00043400
H       13.56840000       4.81892000       9.14740000       0.01212370       0.02163030       0.03177600
H       14.64000000       5.52742000      12.33270000      -0.03197700       0.00790317      -0.06357210
O       17.76050000      18.43160000       6.08286000       0.03701660      -0.01227610      -0.03491550
H       17.36990000      17.47360000       4.56833000      -0.01482810       0.00202230       0.00716377
H       19.52770000      18.77210000       5.48071000      -0.01819860       0.00691073       0.02855040
O       23.50590000      20.68170000      18.75550000       0.01064190      -0.00007762      -0.02669770
H       24.44144700      20.11830000      17.21250000      -0.01106750       0.01038810       0.02962490
H       23.88460000      19.46780000      20.02340000       0.00153267      -0.00884047       0.00022102
O        3.59819000      14.96370000      17.56180000       0.04289090      -0.05751810       0.08392300
H        4.30232000      13.71730000      19.21970000      -0.03834370       0.06127400      -0.07256870
H        4.75246000      14.29410000      16.33890000      -0.00454128      -0.00047061      -0.00913576
