192
TotEnergy=-1103.46149000 cutoff=-1.00000000 nneightol=1.20000000 pbc="T T T" Lattice="24.58850000       0.00000000       0.00000000      -0.00000100      24.58850000       0.00000000      -0.00000100      -0.00000100      24.58850000" Properties=species:S:1:pos:R:3:force:R:3:Z:I:1
O              22.02980000     -4.58653000    -28.32420000      0.01324450     -0.05463350     -0.00727762       8
H              20.78280000     -3.38938000    -28.30100000     -0.04099060      0.04477770      0.00607875       1
H              21.04010000     -6.19219000    -28.45190000      0.03086830      0.02180340     -0.00353131       1
O              49.60260000     47.62530000      3.98512000      0.04896560     -0.01116880      0.05662790       8
H              51.47350000     47.03090000      4.31502000     -0.05449060      0.01280420     -0.01191640       1
H              49.33070000     47.72510000      2.25240000      0.00372619      0.00110685     -0.03546950       1
O              10.07580000      1.29760000     11.63850000     -0.09083090     -0.13490200     -0.02660690       8
H              11.25650000      2.32191000     12.19040000      0.08730620      0.06776510      0.04700410       1
H              10.16980000     -0.50502600     12.53200000     -0.00292550      0.06574070     -0.01880070       1
O              -5.84021000     -7.83855000      0.65445500      0.04413170     -0.24799600     -0.06005830       8
H              -4.83615000     -7.46086000     -0.72989300      0.03032000     -0.01790630     -0.03497460       1
H              -6.10966000     -6.38924000      1.05613000     -0.07146540      0.25671800      0.09170310       1
O               7.48606000     30.40270000     20.05000000      0.01828580      0.00071906     -0.00635532       8
H               6.97491000     32.20700000     20.18010000      0.02284080     -0.02666040      0.00047211       1
H               9.38328000     30.04630000     19.72940000     -0.04511960      0.02895850      0.00437273       1
O              -2.52354000     12.09560000     12.11890000      0.05739190      0.07935230      0.02297930       8
H              -3.08570000     11.12590000     10.81820000     -0.02284890     -0.03614890     -0.04582660       1
H              -0.89162300     13.31460000     11.19680000     -0.03935240     -0.03812700      0.02493190       1
O              45.29660000     25.61850000     12.48780000      0.01981720     -0.03825810     -0.00174158       8
H              46.70850000     25.72090000     13.78900000     -0.01417500     -0.00782932     -0.02912240       1
H              45.73520000     24.31470000     11.10700000     -0.00344734      0.03403180      0.02855560       1
O              -0.90174600    -30.33090000     12.03910000      0.06983490     -0.04666040      0.00394643       8
H               0.52781600    -31.52030000     11.25930000     -0.05908720      0.04262390      0.02035180       1
H              -2.06632000    -29.84280000     10.79960000     -0.01018380      0.00718286     -0.02536850       1
O              29.96690000    -35.40950000     18.19790000     -0.00261731     -0.05580120      0.03133470       8
H              30.39970000    -33.74620000     17.68650000      0.02833960      0.01797370     -0.00038144       1
H              31.16530000    -36.30300000     19.48180000     -0.01739240      0.03465120     -0.02624780       1
O               9.71332000    -28.53430000    -28.17450000     -0.05457870      0.03135490     -0.03986370       8
H              11.30330000    -29.00400000    -28.69770000      0.04562390     -0.01515770      0.00187972       1
H               9.12322000    -28.76630000    -26.53810000      0.00068040     -0.01791980      0.03643150       1
O             -12.09600000      3.50264000      6.66937000      0.01821160     -0.00179983     -0.00497015       8
H             -13.37970000      2.09598000      7.19269000      0.03741220      0.03903930     -0.04808700       1
H             -11.23190000      3.98109000      4.91180000     -0.05791400     -0.04116070      0.05653080       1
O             -13.07060000     29.33090000     50.17250000      0.04870230      0.00045514     -0.04449470       8
H             -14.06950000     28.45910000     48.78870000      0.01724350      0.01498240      0.02944740       1
H             -11.21520000     29.50570000     49.43140000     -0.06195220     -0.01440640      0.01840480       1
O              15.12710000    -29.80970000    -13.96470000     -0.08350480      0.09722310      0.07677540       8
H              15.62820000    -31.14030000    -14.85910000      0.02392550     -0.08740770     -0.04708520       1
H              13.27240000    -29.87840000    -13.37750000      0.05304870     -0.01126970     -0.02404930       1
O              25.98400000     14.18380000     34.83730000     -0.01951030      0.02473070      0.02401020       8
H              26.20370000     13.54200000     33.20700000      0.01061880     -0.01087850     -0.04133000       1
H              27.14940000     13.32970000     35.91420000      0.01881130     -0.00845640      0.01890400       1
O               0.20485200      4.40550000     -1.42226000     -0.02041520      0.00550431     -0.00705751       8
H               1.22452000      5.06094000     -0.11998800      0.01975190      0.04190940      0.02016340       1
H               0.75719900      2.77060000     -1.07169000      0.00002822     -0.05329900     -0.01294640       1
O             -28.09400000     22.57990000     32.64730000      0.01616520     -0.01137820      0.02498740       8
H             -26.95050000     22.94910000     31.32140000      0.01441210      0.00110505     -0.01476660       1
H             -29.72030000     23.15270000     32.16820000     -0.02555100      0.00390999     -0.00678575       1
O             -34.37170000     12.87850000     25.23750000     -0.00817287     -0.00926394     -0.01515560       8
H             -35.06530000     12.50400000     23.53980000      0.00384270     -0.00281564      0.01685120       1
H             -32.86030000     13.81580000     24.85020000      0.00176387      0.00909687      0.00511921       1
O             -16.80320000     63.61510000    -19.64690000     -0.04636760      0.04384630     -0.19596800       8
H             -16.30760000     63.09120000    -18.24440000      0.05523340     -0.05995090      0.18981200       1
H             -16.35540000     62.19670000    -20.76710000     -0.00739566      0.01407050      0.00645169       1
O              67.10700000     21.06150000     39.24220000     -0.03533760     -0.06528710      0.03875870       8
H              68.19190000     22.34990000     39.01850000      0.04362720      0.06346930     -0.02151070       1
H              65.91910000     20.84290000     37.90700000      0.00058048      0.00334397     -0.01563590       1
O              56.83300000    -22.95620000      4.41315000     -0.02614160      0.01594980      0.01459730       8
H              55.42490000    -21.87020000      5.09893000      0.02596340     -0.02381100     -0.02047310       1
H              57.10130000    -22.51850000      2.65659000     -0.00609425      0.00295534      0.00481926       1
O              33.95510000     20.00230000    -16.07560000      0.02791900      0.06339740     -0.00364522       8
H              33.65890000     18.60960000    -15.04630000     -0.00784233     -0.03175480      0.02730980       1
H              34.63740000     21.40670000    -14.97490000     -0.02353860     -0.03607310     -0.02647790       1
O             -11.14620000      5.11030000     62.64420000     -0.04913700      0.02608910     -0.01039960       8
H             -11.96310000      6.39916000     61.43510000      0.02112090     -0.03122500      0.02606200       1
H              -9.39834000      5.04695000     62.39790000      0.03073700      0.00573706     -0.01148260       1
O               7.42164000      1.94062000     -1.33947000      0.03746770     -0.09846380      0.04496640       8
H               7.75409000      0.06303800     -1.94003000     -0.02082450      0.08445700      0.00160986       1
H               6.90005000      3.33099000     -2.29896000     -0.01089730      0.01360690     -0.04522510       1
O              44.73250000      6.64320000     24.12280000      0.02840580      0.00309302      0.02598820       8
H              44.63550000      7.86366000     25.70910000      0.00231265     -0.03907360     -0.03806350       1
H              46.27430000      5.46903000     24.10200000     -0.02609450      0.03158220      0.00695461       1
O              -3.68916000     63.09750000     29.04570000     -0.04808030     -0.02849750      0.02083240       8
H              -4.45336000     64.47190000     28.21180000      0.00348500      0.02096630     -0.01966730       1
H              -1.98440000     63.24810000     29.30530000      0.05278090      0.01217280      0.00170281       1
O               8.89797000     39.55660000     10.56070000     -0.00169155     -0.02543090      0.01314550       8
H               7.63293000     38.55510000     11.56940000      0.02527240      0.01590020     -0.01536690       1
H              10.56430000     38.67860000     10.68840000     -0.02550560      0.00768538      0.00482873       1
O             -18.12700000     18.72110000     17.37530000      0.06872580      0.02825640      0.05042070       8
H             -19.88060000     18.68490000     17.61920000     -0.02630580      0.01821360      0.00897841       1
H             -17.03120000     19.69140000     19.06660000     -0.04249570     -0.03701470     -0.05644420       1
O              33.12260000     34.03110000     51.45280000      0.08477080     -0.04140770      0.00253573       8
H              34.77860000     32.66180000     51.58200000     -0.07678820      0.05054250     -0.01187260       1
H              31.67300000     32.96210000     51.46320000     -0.00989550     -0.01056920     -0.00004574       1
O              13.39910000     35.68050000     20.34790000     -0.02862330     -0.05900900      0.07015370       8
H              13.97380000     36.58800000     19.03850000      0.03098550      0.04422910     -0.07315710       1
H              13.45390000     33.84690000     19.98100000      0.00100613      0.01525880     -0.00286503       1
O               1.57528000    -25.53310000     23.35790000      0.06291150      0.02441900      0.04395820       8
H               0.65379100    -26.53730000     22.36160000     -0.05861510     -0.04598880     -0.05272320       1
H               3.04180000    -26.68440000     23.56510000     -0.00679130      0.01727590      0.00806215       1
O               2.28666000     12.83090000      5.22295000      0.03346050     -0.03515620     -0.07085600       8
H               2.16098000     10.99370000      4.65011000     -0.01121920      0.03348340      0.03454880       1
H               3.63552000     13.19010000      3.89272000     -0.02744070      0.01586850      0.04203290       1
O               0.37557900      0.81466700     15.20740000      0.00554207     -0.04972310     -0.01519810       8
H               0.70456900     -1.06123000     15.71630000     -0.00128008      0.03712620     -0.00613333       1
H               0.80860100      1.76014000     16.64040000      0.00682191      0.02300980      0.02118250       1
O             -36.43540000     54.89110000    -30.13500000     -0.00506540      0.00276566     -0.01131600       8
H             -36.14780000     54.52200000    -31.95820000      0.00264361     -0.00065025      0.02238480       1
H             -35.43610000     53.87690000    -28.97770000      0.00725038     -0.00076765     -0.01162270       1
O               2.43644000     52.38900000    -17.79310000      0.00616172      0.03632420     -0.02923420       8
H               2.81437000     51.67700000    -16.22350000      0.00918628     -0.01418060      0.03078480       1
H               1.28360000     51.34790000    -18.64490000     -0.01428540     -0.02299760     -0.01284560       1
O             -35.98450000     40.96410000      4.26326000      0.02940160     -0.08387750     -0.04724350       8
H             -35.98870000     39.05860000      3.14024000      0.00635525      0.08350710      0.03416760       1
H             -37.55980000     41.00320000      5.07166000     -0.02939540      0.00471070      0.00859631       1
O              22.92930000     33.02220000     15.48210000      0.01424080      0.01965980     -0.00967094       8
H              24.68980000     32.69800000     15.84570000     -0.00500601     -0.01480100      0.00539576       1
H              23.07370000     34.63190000     14.54360000     -0.01442280     -0.01058650     -0.00498653       1
O             -14.05580000    -17.24400000      9.68830000      0.10193500     -0.01887460     -0.02387850       8
H             -13.46430000    -18.62530000      8.48211000     -0.00939890      0.02397310      0.01750360       1
H             -15.74520000    -17.26320000      9.76876000     -0.08880850     -0.00139013      0.00642847       1
O             -47.45380000      5.45355000     18.31260000      0.07960110      0.00536615     -0.14782600       8
H             -48.17830000      5.28282000     19.74920000     -0.06616400     -0.01485120      0.14058600       1
H             -45.67370000      5.12504000     18.55780000     -0.00607047      0.00476004      0.00252070       1
O             -19.52550000    -17.05410000     35.35940000     -0.02115440     -0.04059670     -0.03614840       8
H             -19.89900000    -19.01420000     35.47190000      0.00404983      0.04765380      0.00500958       1
H             -20.47610000    -16.52360000     33.81540000      0.01256110     -0.00917993      0.02437590       1
O              16.72820000     14.93040000     32.88800000      0.05642760     -0.01904090      0.00450969       8
H              18.49710000     14.41550000     32.19230000     -0.05848020      0.01696050      0.01046840       1
H              15.53400000     15.27290000     31.58800000      0.00073421      0.00376201     -0.02786340       1
O             -23.51600000     -3.95571000     41.23280000     -0.01946580      0.02760670      0.09289540       8
H             -24.98470000     -3.87451000     42.57750000      0.04308290     -0.01513230     -0.03995570       1
H             -24.22390000     -4.37212000     39.70720000     -0.02967490     -0.02611100     -0.05258730       1
O              45.38980000      7.93700000     32.18110000      0.01928840      0.01304310     -0.01266180       8
H              43.94100000      8.26675000     31.17160000     -0.00766406      0.00097336     -0.00588508       1
H              44.91460000      7.41496000     33.84430000     -0.00899984     -0.01702580      0.01700440       1
O             -10.28080000    -34.66090000     -8.51699000      0.04464150      0.01042040     -0.00598455       8
H              -8.56783000    -34.46720000     -9.40390000     -0.02803050     -0.00139257      0.02897650       1
H             -11.20420000    -35.54290000     -9.75112000     -0.01773020     -0.01085760     -0.01698030       1
O              53.77010000    -22.13530000    -13.27670000     -0.06453840     -0.00733276      0.01480950       8
H              55.53440000    -22.20080000    -13.01740000      0.02251580     -0.02048820      0.01699490       1
H              52.54870000    -22.99740000    -12.01740000      0.04393070      0.02307210     -0.02187260       1
O              16.08380000     -1.36523000      7.37320000     -0.05151510      0.05375010      0.01677600       8
H              15.12600000      0.57012000      7.42425000      0.03469880     -0.09091250      0.00631651       1
H              15.34260000     -2.71519000      8.63173000      0.01565930      0.04455930     -0.02948330       1
O             -32.09640000     -1.79850000     46.89280000      0.00407582     -0.00131818     -0.08311350       8
H             -33.32230000     -2.70811000     45.75120000      0.01878920      0.01665350      0.03828030       1
H             -32.50340000     -1.82577000     48.59070000     -0.02188530     -0.01907070      0.03536350       1
O               4.83105000    -12.85500000    -11.11820000      0.00533321     -0.02336430      0.00661426       8
H               5.22841000    -13.02730000     -9.25722000     -0.01234130      0.00921947     -0.03711050       1
H               4.74860000    -14.57600000    -11.98160000      0.00766972      0.02296360      0.02318740       1
O              19.21810000     15.78510000     15.47360000      0.02753100     -0.10829200     -0.01402890       8
H              19.00100000     17.40550000     14.99750000     -0.00092925      0.07509070     -0.02601780       1
H              20.13120000     14.79050000     14.05000000     -0.01924620      0.02677260      0.03458660       1
O               9.95871000     21.00290000    -10.20830000      0.25390500      0.13022100     -0.09001470       8
H              11.77770000     20.70180000     -9.32111000     -0.07647690      0.00819162     -0.02353150       1
H               8.85717000     20.14500000     -9.52845000     -0.16882200     -0.13359000      0.10883900       1
O              25.69430000     57.46250000     30.96410000     -0.03202630     -0.03653780      0.00145436       8
H              23.78930000     57.71740000     31.27160000      0.03139150     -0.01049130      0.00002662       1
H              25.88260000     55.54960000     30.98650000     -0.00085690      0.02889690      0.00878455       1
O              -5.96448000      9.68460000      3.23813000     -0.05509940     -0.05883600     -0.02364800       8
H              -5.14741000     11.17470000      3.60304000      0.02480560      0.05450550      0.00994098       1
H              -7.61353000     10.04140000      2.42741000      0.02446410      0.00326226      0.01063550       1
O              14.43980000    -29.40280000     18.06070000      0.05529340      0.02783310     -0.00276270       8
H              14.26650000    -31.17600000     17.80950000      0.00198838     -0.01756240     -0.00498186       1
H              16.35650000    -28.97440000     17.55380000     -0.06725800     -0.01297540      0.00157542       1
O               2.37160000     15.99000000     46.51930000     -0.04189850     -0.04362370     -0.07671360       8
H               0.42452800     15.56550000     46.14450000      0.07072090      0.02326500      0.01443660       1
H               3.19295000     15.27290000     44.74880000     -0.02170040      0.01971000      0.06445780       1
O              40.60540000     44.99890000      2.10494000     -0.03955870     -0.04976820      0.03558760       8
H              40.59720000     46.25340000      3.37442000      0.00369229      0.01832800      0.01844660       1
H              39.57310000     43.56950000      3.11004000      0.02548160      0.03785170     -0.03886550       1
O              21.69320000     14.90560000    -28.75050000     -0.06249080      0.05587560     -0.05962510       8
H              21.98510000     13.27430000    -28.39670000      0.02653360     -0.08989220      0.03375940       1
H              20.50650000     14.47030000    -30.23520000      0.03032040      0.03207140      0.02552820       1
O             -19.20680000     44.24850000      0.05182300     -0.00654606     -0.01336820     -0.09044500       8
H             -19.94840000     42.65350000     -0.70228900      0.00806031      0.02864550      0.02971610       1
H             -18.97990000     44.45410000      1.76153000     -0.00573340     -0.01102370      0.05159840       1
O               5.29880000    -27.71560000     29.66600000     -0.01309970     -0.01902930     -0.00709364       8
H               6.29618000    -29.00170000     30.45240000      0.00163917     -0.00176971      0.01043670       1
H               6.44657000    -26.40280000     29.28130000      0.01439500      0.02615850      0.00049909       1
O               3.15073000     31.78420000      1.77085000     -0.01284370     -0.01892510      0.04549070       8
H               1.96811000     32.16560000      3.20336000      0.02212060     -0.00162973     -0.02010320       1
H               3.07315000     33.12200000      0.59439200     -0.00297996      0.01702900     -0.02563820       1
O             -11.21620000    -12.69420000     10.89860000      0.01634860      0.03192730      0.00067477       8
H             -12.32280000    -14.00270000     10.42800000     -0.01019320     -0.02414200     -0.01516420       1
H             -10.23890000    -12.02990000      9.45577000     -0.00565802     -0.01286700      0.01861350       1
O              -5.02796000      5.73037000     11.93060000      0.00894173      0.04887830      0.02745120       8
H              -3.90023000      6.42021000     13.27910000     -0.01632510     -0.00325090     -0.01759140       1
H              -4.62120000      3.98686000     11.98880000      0.00402407     -0.03273730     -0.00646499       1
O              27.73460000    -15.22720000     -2.71362000      0.04493780      0.06109480      0.00051707       8
H              28.23750000    -13.40640000     -3.13507000     -0.01173840     -0.04873180      0.01417840       1
H              26.06960000    -15.25920000     -3.32070000     -0.03222630     -0.00401632     -0.01504800       1
O              22.68780000      9.75654000     44.78330000      0.04593470      0.04801280      0.16656500       8
H              21.89720000      8.78420000     46.09510000     -0.01526000     -0.01156080     -0.01247990       1
H              22.35690000      9.56251000     43.20210000     -0.03910890     -0.04023430     -0.13951100       1
O              16.18940000     28.08070000     47.46030000      0.02485220     -0.02152250     -0.01000090       8
H              17.84270000     28.89740000     47.83660000     -0.02001320      0.00419591     -0.00180898       1
H              16.67280000     26.33430000     46.89600000     -0.01262390      0.02345280      0.01026650       1
O             -16.11370000     11.47950000     21.50580000      0.06115870     -0.01631040      0.03911220       8
H             -14.22620000     11.53420000     20.84190000     -0.04952430     -0.00248710      0.01660510       1
H             -15.83940000     10.85430000     23.37670000     -0.01717610      0.01725090     -0.05318900       1
