192
TotEnergy=-1102.19872000 cutoff=-1.00000000 nneightol=1.20000000 pbc="T T T" Lattice="23.41028000       0.00000000       0.00000000      -0.00000100      23.41028000       0.00000000      -0.00000100      -0.00000100      23.41028000" Properties=species:S:1:pos:R:3:force:R:3:Z:I:1
O              18.84520000     19.82140000     11.85070000     -0.00079947      0.02556060     -0.08358570       8
H              19.56320000     20.73960000     10.37390000     -0.01065910      0.00857118      0.01638070       1
H              20.38790000     19.43410000     12.66800000      0.02188260     -0.02107660      0.02731320       1
O               1.06449000      4.05931000     11.86920000      0.03907310     -0.01423350      0.01269210       8
H               1.28320000      5.68161000     12.64480000     -0.00116739     -0.00167196      0.00125429       1
H               2.79699000      3.38590000     11.58420000     -0.01164510      0.00450754     -0.00379826       1
O              15.98180000      5.64121000     21.72810000      0.03304310      0.02094470     -0.07041200       8
H              16.19750000      5.82412000     19.60170000     -0.02563460     -0.01963760      0.06833290       1
H              17.45460000      6.63340000     22.26730000     -0.02309190     -0.00722715      0.00565466       1
O              11.84390000     18.35370000     12.67180000     -0.02852310      0.00182983     -0.01553020       8
H              11.60950000     19.39040000     10.98320000      0.01205890     -0.01139150      0.04799880       1
H              13.16770000     18.94660000     13.71490000      0.01123860      0.00233604      0.00419344       1
O              16.11260000     14.14930000     15.75780000     -0.04742230      0.04553970      0.00512453       8
H              14.22410000     13.63460000     16.09340000      0.05975280      0.02872250     -0.00028495       1
H              16.29850000     16.26770000     15.91650000     -0.01539080     -0.07598150     -0.01565540       1
O              17.86740000      1.83572000     13.94180000      0.01268880     -0.01864180     -0.02087920       8
H              17.56720000      3.20511000     15.03860000     -0.01511270      0.01176560      0.01572420       1
H              16.18860000      1.30954000     13.38060000      0.00035585      0.01161880      0.00351704       1
O              15.96160000     15.85590000      2.64733000     -0.05525990      0.03465950     -0.00726079       8
H              16.16170000     18.67050000      4.83674000      0.00214245     -0.06226750     -0.02817110       1
H              13.89970000     15.76220000      2.10278000      0.07917140      0.01848020      0.01443970       1
O               8.32837000     18.26540000      5.10318000     -0.04583090     -0.02800650     -0.02986120       8
H               7.93213000     16.52650000      5.67247000      0.00542529      0.01180750     -0.00155076       1
H               6.74998000     18.72460000      4.00859000      0.04071100     -0.00663589      0.03226480       1
O              11.24620000     16.67380000      1.31680000     -0.03207180      0.04630700      0.03046880       8
H              10.34820000     17.50210000      2.96847000      0.01701400     -0.02831060     -0.04016990       1
H              11.16070000     18.12150000      0.12190300      0.00135558     -0.02958220      0.00562996       1
O              21.06370000     22.97160000      7.76183000     -0.01682940     -0.07679260     -0.09475850       8
H              20.81600000     21.73770000      5.71711000      0.01556690      0.06094340      0.09038780       1
H              19.95040000     24.39400000      7.45705000      0.00305434      0.00568598      0.00214423       1
O               0.17648100     18.40240000     23.30710000     -0.03878710     -0.07011770     -0.00644640       8
H              -0.55991600     16.53270000     23.19070000      0.02090660      0.06194140      0.00925165       1
H               1.10668000     18.63730000     21.76680000      0.00779855     -0.00469900     -0.00956478       1
O              22.13440000      8.58498000     19.70320000     -0.00417094     -0.06250260      0.01747540       8
H              22.20800000      8.17367000     21.57240000     -0.00285796      0.03266170     -0.02608790       1
H              21.56560000      6.84002000     19.23020000      0.01307230      0.03204800     -0.00784300       1
O              21.03980000     -0.78072700     16.81110000      0.12249600     -0.11847800      0.22658700       8
H              21.38140000      0.78509000     17.71170000      0.01005380     -0.01440380      0.01799770       1
H              20.47150000     -0.00683800     15.64080000     -0.12693600      0.12405900     -0.24951600       1
O               5.71690000     11.22890000     16.42890000      0.03370950      0.03130050      0.02724610       8
H               6.30245000     12.39720000     18.50940000     -0.02673430     -0.00884830     -0.00965815       1
H               5.97498000      9.44134000     16.20520000     -0.00765080     -0.00062801      0.01125400       1
O              11.19350000     11.42110000      1.07465000      0.03561180     -0.02213670     -0.00212374       8
H               9.59827000     10.63190000      1.43859000      0.01008960      0.01823060     -0.00271317       1
H              11.16510000     13.18730000      0.62844500     -0.01320780      0.00126444      0.00447810       1
O              16.49190000     19.19390000     15.56770000      0.00610053      0.01834060      0.02611020       8
H              18.00760000     19.29420000     16.61940000     -0.01161450      0.00308235     -0.00381817       1
H              17.00240000     20.33900000     14.16550000     -0.00291111     -0.02040060      0.00958095       1
O               6.21584000      1.49287000      0.65491800      0.01291010     -0.02148970     -0.00346023       8
H               5.39932000      0.01903000      1.37897000     -0.00294166      0.00427104      0.00248932       1
H               7.71151000      0.64924200     -0.21904000     -0.02655430      0.03233880      0.00649723       1
O               6.10419000     13.94650000     20.56700000     -0.01610650     -0.05002960      0.05007890       8
H               4.25951000     13.48380000     21.22220000      0.04676000      0.01691200     -0.04074680       1
H               6.82958000     12.51010000     23.37810000     -0.01165700      0.02371200      0.00125601       1
O              11.25980000     13.67000000     17.37410000     -0.02296710      0.01222860      0.04153470       8
H              10.47830000     14.30250000     18.98770000      0.01986030     -0.00111674     -0.02768030       1
H              10.20660000     12.22090000     17.14880000      0.00171380     -0.00341799      0.00361614       1
O              14.50500000     14.06620000      8.22020000      0.01119130     -0.05484850      0.07925670       8
H              14.87040000     13.73360000     10.24360000     -0.01668180      0.02824530     -0.09150640       1
H              14.78620000     15.72150000      7.66620000      0.00752351      0.02092050      0.00590183       1
O              22.05740000     17.62750000     14.42630000      0.06886840     -0.02177010      0.09359340       8
H              23.54050000     17.90340000     16.33140000     -0.06463710     -0.01026550     -0.08627900       1
H              21.84760000     15.76700000     14.41460000      0.00475466      0.02187610      0.00090608       1
O              21.89640000     23.01890000      0.80539200     -0.10440100     -0.04289130      0.04089940       8
H              21.84780000     21.12320000      0.51735800      0.02204050      0.02303720     -0.00859116       1
H              19.90280000     22.84970000      1.62625000      0.08082130      0.02559490     -0.03630780       1
O              15.51800000     10.71460000      4.84628000     -0.02080840      0.00722804      0.00847192       8
H              15.38240000     12.42160000      5.73938000      0.00431587     -0.00906299     -0.01258480       1
H              13.95810000     10.58360000      3.87670000     -0.00227659      0.00317972     -0.00582823       1
O               2.76671000     21.21330000     15.22140000     -0.05899310      0.00489301      0.01717410       8
H               2.68235000     20.59600000     13.45340000     -0.00234012      0.01172300      0.01373330       1
H               1.13015000     22.07620000     15.81920000      0.03162870     -0.02964430     -0.02289270       1
O              15.35460000      8.63013000     14.03930000      0.00303690      0.09260880     -0.04207190       8
H              13.63340000      9.33933000     14.43730000      0.02416390     -0.01515380     -0.01079960       1
H              16.28760000     10.22480000     13.27280000     -0.02677670     -0.05576690      0.03497750       1
O               5.93403000      0.98480600     15.23450000     -0.03095430      0.01887540      0.02565440       8
H               4.23994000      1.64631000     14.71970000      0.03854900     -0.01368840     -0.00087935       1
H               5.25763000     -0.37475600     16.32440000      0.01497950      0.01197060     -0.01816490       1
O              19.81870000     13.53190000      0.94124300     -0.02922120      0.05714000     -0.02453910       8
H              18.65610000     12.16890000      1.07707000     -0.00067880     -0.00752253      0.00248046       1
H              17.77860000     15.39510000      0.64815000      0.02606400     -0.04589100      0.05138460       1
O               7.89571000     12.80490000      6.88497000      0.03115850      0.03166070      0.03393990       8
H               6.78149000     11.38580000      7.26226000      0.00672068      0.00806845      0.01005160       1
H               9.19341000     13.16220000      8.87116000     -0.03091660      0.00793991     -0.04778720       1
O              22.03590000      3.02822000     20.00280000      0.04294160     -0.01258220      0.07052560       8
H              21.37520000      1.54044000     21.01370000      0.00257286      0.02015410     -0.00862180       1
H              23.64640000      3.27692000     21.12740000     -0.04426140     -0.00608654     -0.04288440       1
O               7.75368000     17.38830000     15.92160000     -0.00263006      0.01714520      0.00456801       8
H               7.19564000     18.73430000     14.77810000      0.01682750     -0.02061650      0.00006522       1
H               9.48113000     16.79330000     15.60850000     -0.02076390      0.01453800     -0.00636002       1
O               3.59215000     18.51090000     11.52280000     -0.02115570     -0.03153330     -0.02151080       8
H               2.36269000     17.15560000     11.96270000      0.01544810      0.01287810      0.01695150       1
H               4.00384000     17.74690000      9.93035000      0.01309000      0.01387830     -0.00656747       1
O               9.73376000      5.61001000     10.67980000     -0.04307970      0.04590320     -0.06778700       8
H               8.41718000      6.71311000      9.07279000      0.04638160     -0.04248650      0.07247360       1
H              11.42900000      5.71725000      9.93989000     -0.01661880     -0.00245589      0.00568440       1
O              21.78750000     11.34160000     10.84930000     -0.03668110      0.00634858      0.06141180       8
H              20.50150000     10.11450000     10.36170000      0.01916380      0.01217740     -0.00977984       1
H              21.01650000     11.91570000     12.52990000      0.03053000     -0.01661940     -0.02912330       1
O              10.48660000      2.52381000     17.54010000     -0.00311851      0.03219150     -0.03312210       8
H               8.71925000      3.04707000     17.47660000      0.01554620     -0.01664170      0.00197717       1
H              10.71120000      1.43038000     18.92670000     -0.00449286     -0.01216130      0.02283040       1
O              20.28330000     11.59630000     15.98680000      0.01030810      0.00029224     -0.01036400       8
H              20.74310000     10.15800000     16.98620000     -0.00151316      0.00385725      0.00476269       1
H              18.57300000     12.05650000     16.39600000     -0.00749557      0.00970856      0.00350776       1
O              12.88770000      1.18678000     12.59660000     -0.02999870     -0.02657500      0.06281300       8
H              13.05340000     -0.64774200     12.41170000     -0.00284588      0.02457160     -0.00798991       1
H              11.78160000      1.19828000     14.23540000      0.03007230      0.01348750     -0.04424940       1
O              11.43720000      1.04994000      3.40108000     -0.02896130      0.06605210     -0.05103800       8
H               9.85252000      1.92577000      2.38241000      0.06173060     -0.02813390      0.04146330       1
H              12.50260000      2.57400000      4.05396000     -0.01281780     -0.02994060     -0.00623008       1
O              10.05710000     23.26810000     21.68780000      0.14763500      0.15713900      0.05542520       8
H              11.27680000     22.92430000     23.15130000     -0.02172100      0.01762590     -0.03882580       1
H               9.17797000     21.94060000     21.70820000     -0.10066900     -0.17623200     -0.02024190       1
O               2.73037000     13.86780000     13.41160000      0.01228170     -0.01765800     -0.01388680       8
H               4.02802000     13.53060000     14.68060000     -0.00554636      0.00030303      0.00654046       1
H               3.29527000     12.58340000     12.21490000     -0.01616030      0.01268160      0.00518610       1
O              15.30790000      3.72531000      5.41877000      0.03712690      0.02131870     -0.05958850       8
H              14.78540000      5.18956000      6.35768000      0.00063352      0.00591532      0.01423890       1
H              17.42930000      5.05372000      4.00445000     -0.02922670     -0.02367320      0.07645900       1
O              20.38070000     10.77000000      6.47432000     -0.05422700      0.03780710     -0.00062017       8
H              20.32170000     12.68890000      6.04701000     -0.00631661     -0.06149890      0.00861981       1
H              17.21330000      9.93225000      7.93676000      0.05201620      0.00068329     -0.00522595       1
O              16.41930000      0.12257000     22.43660000     -0.02082680      0.01069870     -0.00489371       8
H              15.74920000      1.84766000     22.89650000      0.01371550     -0.02654760     -0.03180810       1
H              15.83070000     -0.45470400     20.74450000      0.00632409      0.02143340      0.03175460       1
O              15.22950000      5.07943000     16.85330000     -0.01942660     -0.06404060      0.05858220       8
H              13.40510000      4.73056000     17.07500000      0.01914480      0.00049528     -0.00424117       1
H              15.48350000      6.49100000     15.88960000      0.00382367      0.05123160     -0.03744440       1
O              11.89470000      6.36212000      1.17922000      0.04569550     -0.02297110      0.02569240       8
H              13.74540000      5.70279000      1.62219000     -0.06958090      0.03146290     -0.02361070       1
H              11.99850000      8.02777000      0.40861600      0.01507500     -0.01063860      0.00102581       1
O              12.65200000     21.12940000      9.40929000      0.04393760     -0.03723520     -0.07778940       8
H              13.77980000     19.85290000      8.36749000     -0.02893950      0.03942290      0.03384250       1
H              11.89940000     22.15810000      8.11722000     -0.00330087      0.01084430      0.00209559       1
O               8.83571000     18.99200000     20.79890000     -0.10251100     -0.04217430     -0.04730150       8
H               8.24697000     19.27610000     18.61310000      0.02264450     -0.02823050      0.08162630       1
H               7.05690000     17.91500000     21.47720000      0.08432230      0.04470720     -0.03375900       1
O              16.43320000     22.29590000      4.35848000     -0.06837760      0.04080040     -0.04525120       8
H              15.08260000     23.00910000      2.83217000      0.05836520     -0.04286110      0.05331830       1
H              15.84100000     23.60400000      5.58029000      0.01522000     -0.00357841     -0.00801398       1
O               6.72027000     11.77320000      2.00052000     -0.02906880     -0.00709545     -0.01521010       8
H               5.40524000     10.57330000      2.24675000     -0.01464900     -0.01889380     -0.01552070       1
H               6.97026000     12.26090000      3.80838000      0.02800920      0.03219620      0.00909461       1
O               1.47360000     12.94750000     20.12500000     -0.02613770     -0.09399360     -0.06585950       8
H               0.13893900     13.92880000     19.51250000     -0.02195790      0.02611300      0.00120827       1
H               0.90412900     11.24560000     18.68170000      0.03511800      0.06635470      0.07306980       1
O              20.31420000      3.95927000      9.69486000     -0.01027100     -0.00696877      0.01455170       8
H              21.95470000      3.17695000     10.07280000     -0.01526470      0.01862460      0.00022498       1
H              19.36590000      3.78883000     11.26360000      0.00331848     -0.00703541     -0.00808572       1
O              19.80850000      6.09563000      5.56399000     -0.00034467      0.03414980     -0.04976490       8
H              20.38590000      7.91028000      5.08429000     -0.01737410     -0.02207320      0.01995080       1
H              19.69110000      6.22605000      7.40620000      0.00059247     -0.01847990     -0.00601952       1
O               3.72602000     18.41390000     19.23590000     -0.00426590     -0.00969266     -0.03011270       8
H               4.76700000     16.88800000     19.20770000     -0.00812638     -0.00493281      0.00984357       1
H               3.63595000     18.72680000     17.39070000     -0.00347638      0.01296710      0.02333880       1
O               1.15074000      7.88300000      8.25375000      0.03188400     -0.02052250      0.01834680       8
H               1.79423000      6.22075000      8.84763000     -0.01738750      0.02323850     -0.00977300       1
H               1.25132000      8.90065000      9.81226000     -0.00997799     -0.00345198     -0.02374550       1
O              10.28890000      9.63409000     14.19300000     -0.08299210      0.03421560     -0.01642710       8
H               8.74658000      9.16754000     13.11200000      0.05375770     -0.01136070      0.01038510       1
H               9.13348000     10.99350000     14.95650000      0.01691360     -0.02607520     -0.00221613       1
O               5.81341000      2.20874000     10.25750000     -0.00141033      0.00528930     -0.02411130       8
H               6.99771000      3.31826000     11.17520000     -0.00091204     -0.01752570     -0.02523620       1
H               6.38064000      1.89695000      8.45938000     -0.00091266      0.00969212      0.04380330       1
O               6.53486000      8.53913000      7.42081000     -0.03368270     -0.07550990     -0.04989620       8
H               4.82608000      7.62174000      6.51059000      0.07263100      0.03683490      0.04206090       1
H               8.06314000      8.08591000      6.33128000     -0.04644350      0.01139060      0.01277950       1
O               6.91651000      6.25876000      2.84700000     -0.00431932     -0.00264458     -0.01272560       8
H               5.87234000      4.91451000      2.03244000      0.03466890      0.01414190      0.00899009       1
H               8.74385000      6.18889000      2.34612000     -0.02510430     -0.01101780     -0.00276664       1
O              10.39720000     14.27870000     11.08390000     -0.02390460     -0.05736430     -0.02079840       8
H              10.51760000     13.07390000     12.42950000      0.00083017     -0.00270829     -0.00122862       1
H              10.69650000     15.91000000     11.78340000      0.00985131      0.02675000      0.00979605       1
O              20.28870000      6.80782000      0.41889400     -0.01835890     -0.00283804     -0.16455900       8
H              20.72050000      6.35317000      1.93843000      0.03672920     -0.04760220      0.11225900       1
H              20.46720000      5.35346000     -0.96644200     -0.00303941      0.03418890      0.06289240       1
O               3.92124000     20.22280000      2.60101000     -0.01481500      0.08271130      0.09201220       8
H               2.33773000     20.71550000      1.79946000      0.00449178     -0.01515000      0.00297716       1
H               3.50154000     21.90170000      4.85399000      0.02214160     -0.06579560     -0.08434980       1
O              14.09670000      7.99293000      8.48725000      0.02910800      0.01862820     -0.02585370       8
H              15.17760000      9.57370000      6.58981000     -0.02026690     -0.00823777     -0.01181120       1
H              14.25130000      7.99201000     10.28030000      0.00675984      0.00381998      0.00973246       1
O              16.74550000     18.36790000      7.33015000      0.03469350      0.06897670      0.01304350       8
H              17.81620000     18.00800000      9.01689000     -0.02115240      0.00653539     -0.03647890       1
H              17.30720000     20.19980000      6.80522000     -0.01061290     -0.03839520      0.02459580       1
O               5.73497000      6.24692000     15.01930000      0.06044470     -0.01899390      0.00190881       8
H               7.69836000      5.75453000     14.87920000     -0.07759220      0.01050850      0.00586437       1
H               4.89982000      5.15324000     16.25860000      0.02039950      0.00810651     -0.01333470       1
O               8.20297000     22.78690000      6.25006000     -0.02957210      0.01186250      0.03178120       8
H               8.64912000     21.49060000      7.43871000     -0.00777337     -0.00006740     -0.01283090       1
H               9.38869000     22.89100000      4.88827000      0.01049940     -0.00062338      0.00344276       1
