192
Lattice="24.39485 0.0 0.0 0.0 24.39485 0.0 0.0 0.0 24.39485" Properties=species:S:1:pos:R:3:force:R:3 TotEnergy=-1103.41053 cutoff=-1.0 nneightol=1.2 pbc="T T T"
O       23.93490000      20.40540000      20.07690000      -0.06325830       0.05453270      -0.02230040
H       22.57000000      20.26438000      18.70730000       0.03747680      -0.00531013       0.03572560
H        0.72975000      19.13639000      20.08650000       0.02684590      -0.04975560      -0.01375100
O        1.36210000      21.79385000       0.98446600      -0.01851610      -0.01031040      -0.05129420
H        0.28390000      23.05535000       1.65444000      -0.00444906       0.02030010       0.01923430
H        0.54050000      21.76705000      23.64169600       0.02331710      -0.01235260       0.03041600
O       10.25930000       2.30825000      14.83740000       0.02318090       0.02945760       0.00404760
H       11.53990000       3.35427000      15.85480000      -0.02034550      -0.03995900      -0.00497088
H        9.90345000       0.60259100      15.51080000       0.01042820       0.01648890       0.00182599
O       18.42291000      13.90675000      20.16547000       0.04163760      -0.01635810      -0.01194670
H       19.92126000      12.78215000      19.60372000      -0.03455680       0.02395060       0.01365250
H       19.07529000      15.40040000      21.06583000      -0.00234392      -0.01500400      -0.00392125
O        4.97534000       8.11645000      19.49480000      -0.00821895      -0.03140420      -0.03893800
H        6.54507000       8.41065000      20.25920000       0.01931990       0.01750690       0.02997040
H        5.57206000       7.08865000      18.05360000      -0.01955410       0.01367030       0.00386379
O       20.44574000       8.75443000       6.11225000      -0.05883090       0.00700731      -0.02550460
H       19.79903000       7.97146000       7.68737000       0.00494248       0.01484050      -0.01570730
H       18.80671000       8.97323000       4.96565000       0.05370380      -0.01707880       0.03696060
O       20.54815000       0.76655000      13.03050000       0.01612550       0.00308372       0.01178910
H       22.37435000       1.39935000      13.00680000      -0.03448640      -0.01994240      -0.00866465
H       19.87705000       0.03885000      11.46400000       0.02257950       0.01243520      -0.00454814
O       24.00188300      20.21130000       8.59964000      -0.03723020       0.07816660      -0.00451976
H       24.03782500      19.17710000       7.17355000       0.01808600      -0.03667620      -0.03024490
H       23.08027000      21.71340000       7.70694000       0.01853010      -0.03928840       0.03936030
O        9.72825000      14.73320000      17.67680000      -0.04102180      -0.00410771       0.01978420
H       11.24225000      14.38010000      18.49790000       0.04348430      -0.00195224       0.00543221
H        8.62175000      13.75110000      18.80180000      -0.00362748       0.01353280      -0.01679820
O        9.99499000      21.86680000      24.21500000       0.01896790       0.00983803      -0.03932300
H       11.59380000      21.41020000      23.29980000      -0.02342050       0.00445368       0.02034360
H        9.82782000      20.86710000       1.29435000       0.00639189      -0.02051510       0.01800190
O       16.44285000       3.34565000       7.53429000      -0.03949890      -0.00683368      -0.05099060
H       15.43531000       3.39019000       5.87556000       0.02749500       0.01123010       0.02854590
H       15.01986000       2.64073000       8.47702000       0.00495059       0.00104469       0.01370740
O       12.63575000       3.70075000       3.11610000      -0.02128000      -0.03000020      -0.06046790
H       10.45185000       3.67025000       3.13450000       0.07247950       0.00097071       0.00993932
H       13.38115000       2.77625000       1.47400000      -0.03725480       0.03231290       0.05777430
O       14.85680000      20.29270000      10.65715000      -0.01402460      -0.03464210       0.00573427
H       15.11220000      18.50110000       9.92205000       0.00785850       0.03518110       0.00259988
H       14.22130000      19.92520000      12.35225000       0.01282520       0.00752918      -0.00987595
O        4.85885000      14.92060000      14.30565000      -0.05137900       0.02415630      -0.00749256
H        3.77825000      13.84850000      13.27775000      -0.05160440       0.02393920      -0.00694217
H        5.85645000      13.54260000      13.98885000       0.09327350      -0.03651120       0.01422460
O       23.65046700       2.71348000       1.96151000       0.06610140       0.01582960       0.02966180
H        0.07486500       2.87122000       3.74297000      -0.03118940       0.00228739      -0.04516650
H        0.54938100       3.62850000       0.85306500      -0.03298780      -0.02320830       0.01689050
O       19.14910000      23.45110000       8.06895000      -0.05732620      -0.03769410       0.03675790
H       17.95330000       0.31765000       7.21065000       0.02426580      -0.02284440       0.02912880
H       18.01530000      22.16280000       9.26185000       0.03679930       0.05064420      -0.05828670
O       15.24770000      11.59090000      23.57980000       0.05461800       0.02564140       0.07910780
H       14.11050000      11.22350000      22.39800000      -0.05837380      -0.02523940      -0.07046250
H       16.75540000      12.21600000      22.76170000      -0.00300631       0.00066313      -0.00572743
O        5.67315000      14.57320000       3.78025000       0.02528650       0.06468170       0.01426860
H        5.63785000      13.69460000       5.32195000      -0.00006551      -0.01376640       0.03804340
H        5.09795000      13.39080000       2.68405000      -0.02600010      -0.04275730      -0.05549560
O       19.35520000      20.59380000      16.41655000      -0.03714030       0.05637980      -0.00251947
H       19.72330000      22.29920000      15.46095000      -0.01218950      -0.04669690       0.02710550
H       17.54620000      20.79490000      17.15555000       0.05807130      -0.00509229      -0.02659870
O        7.85880000       3.82255000       4.25035000      -0.00587217      -0.03085980       0.02329660
H        7.68010000       2.51665000       5.70096000       0.00422482       0.03029950      -0.03657120
H        7.09230000       3.01165000       2.77897000      -0.00908643      -0.00940147       0.00250239
O        6.50735000      19.65210000      12.20455000      -0.02985710      -0.06583040       0.04454690
H        7.42375000      19.08030000      10.74405000       0.01212360      -0.00002930      -0.00912400
H        5.65875000      17.94060000      12.89575000       0.02631420       0.04603970      -0.01532660
O        7.06295000       6.98294000      14.38090000       0.07114740      -0.05742620      -0.00604910
H        7.80975000       8.59982000      13.94180000       0.00308698      -0.00048895       0.00354558
H        8.69015000       5.58922000      14.34960000      -0.07379700       0.05286920       0.00108482
O        5.98516000       0.94033600       0.23154300       0.03708750      -0.02812170      -0.00781795
H        5.11493000      23.76039100       0.18631700      -0.04408550       0.00003829       0.00756762
H        7.51053000      24.26612500      24.31172800       0.01086550       0.03334660       0.00027432
O       19.71865000       4.55855000      24.07160000      -0.02974920      -0.00387224      -0.04322220
H       18.88035000       5.61207000       0.80875000      -0.02499000       0.03367330       0.01619580
H       20.70395000       3.61982000       0.76915000       0.04386210      -0.02849470       0.02618530
O       22.01295000      13.42660000       3.57785000       0.03438580       0.03348630      -0.02021330
H       21.42749000      12.32710000       4.77775000      -0.03102430      -0.04643270       0.03298010
H       23.57717900      13.88010000       4.42635000      -0.00578710       0.01452250      -0.01430400
O       10.89840000      12.62045000       8.59977000       0.01051500       0.01304070      -0.08014010
H        9.43845000      12.83035000       7.33578000       0.03331080      -0.01067460       0.04050250
H       12.44180000      12.85395000       7.41707000      -0.04252820      -0.00270779       0.04047180
O        6.19515000      20.31850000      20.47680000       0.03800400      -0.00527512       0.04547050
H        5.29205000      18.74600000      20.50050000      -0.01088570      -0.00826907      -0.00939487
H        7.38025000      20.03140000      21.98310000      -0.02433040       0.01943140      -0.03722250
O        6.07825000       8.79655000       3.48030000       0.00807126      -0.06000840      -0.00043715
H        6.37105000       6.86075000       3.71980000      -0.00102611       0.05430630      -0.00039031
H        4.79625000       8.86435000       2.18000000      -0.00746214       0.00588147       0.00275455
O       12.11810000       9.30295000      19.84070000      -0.03455740      -0.19073700       0.13027600
H       12.33270000      10.60415000      18.96340000       0.04395950       0.13735100      -0.12470100
H       12.85850000       7.59895000      19.36280000      -0.00882672       0.04372690      -0.00792289
O        2.76007000       0.22315000      18.66800000       0.09616270      -0.01542150      -0.00829875
H        1.95286000      23.06070000      19.13880000      -0.00611886      -0.01247650       0.00303889
H        4.82862000      24.08750000      18.56100000      -0.09455450       0.02039590       0.01153440
O        1.18068000      17.49360000       4.39230000       0.00728346       0.05280480      -0.05329000
H        2.78083000      16.62560000       4.38917000       0.00424853      -0.00188718      -0.00036679
H        1.44717000      18.90860000       2.93103000      -0.01339320      -0.04637280       0.04969210
O        1.44547000       2.05961000      13.91770000      -0.07968720       0.10909200       0.05516270
H        2.22552000       0.82201900      13.22030000       0.07600720      -0.11277800      -0.10660000
H        1.77152000       1.41578000      15.53600000      -0.00573044       0.00919858       0.05165800
O       14.14510000       4.30010000      17.99920000       0.09370280       0.00443636       0.04283840
H       15.99610000       4.69760000      17.10610000      -0.06737700      -0.01358280       0.02286270
H       14.86880000       3.69250000      20.01850000      -0.03190590       0.00914528      -0.06819000
O        8.11023000      24.21345000       8.12925000      -0.01321000      -0.01714080      -0.12261200
H        9.40631000       0.39340000       8.99575000       0.09059340       0.04219820       0.06197270
H        6.86395000      23.71825000       9.14955000      -0.08418900      -0.01473320       0.06054060
O       14.68480000      15.35815000       3.32895000       0.00934220      -0.05090930      -0.01778390
H       14.26540000      13.70755000       2.44941000       0.01631390       0.03624040       0.01400350
H       13.29280000      16.40355000       2.92076000      -0.02025870       0.01496420       0.00241975
O       20.62470000      12.02965000      13.00270000      -0.00272425       0.04822490       0.00193126
H       20.42110000      13.97485000      13.06600000       0.00499553      -0.04455770      -0.01066940
H       19.54440000      11.40865000      11.66990000       0.00185415       0.00106620       0.00533667
O        5.51595000      11.44575000       7.68622000      -0.02280670       0.06670190       0.12240000
H        5.51845000      10.22595000       6.49237000      -0.01001850      -0.06907920      -0.04443550
H        4.46065000      11.17295000       9.40738000       0.03488030       0.00850745      -0.08414520
O        1.53250000       4.30149000      21.43570000      -0.03959750      -0.07975670       0.00520461
H        1.98780000       2.40810000      20.71320000       0.00950554       0.07579630       0.01087920
H        2.50870000       5.76371000      21.22820000       0.03176750       0.00481151      -0.01545090
O        1.64305000      11.35935000      11.31975000       0.05735730      -0.00244768      -0.00875465
H        2.36065000       9.60555000      11.34015000      -0.02994160       0.01006030       0.01093870
H       24.37060000      11.30125000      11.86505000      -0.03606000      -0.00401360       0.01088410
O       16.59250000      16.37610000       8.35485000      -0.01355940      -0.03134500      -0.08522310
H       18.24420000      16.27770000       8.97465000       0.02709650       0.00282462       0.01673980
H       16.76510000      15.82060000       6.41215000      -0.01839960       0.02246380       0.06668310
O        3.63575000      23.19694000      10.72715000      -0.02864380      -0.04145040      -0.01244340
H        4.43555000      21.71744000      11.68675000      -0.01202640       0.02366560      -0.02316100
H        2.20405000      22.32879000       9.69325000       0.03967830       0.01882250       0.02835000
O       18.41165000       7.37676000      10.60805000       0.00118931      -0.04192750       0.01975310
H       17.93965000       5.71330000       9.92105000      -0.00896486       0.01894150      -0.01825040
H       18.93395000       6.57001000      12.23425000      -0.00152040       0.02697020      -0.00087458
O       14.52958000      12.88060000      17.04836000       0.02383270       0.00862214      -0.00261988
H       16.21874000      13.29650000      17.95172000      -0.03553840      -0.01839450      -0.02694960
H       14.50549000      11.77960000      15.45473000       0.01194230       0.02349060       0.02708730
O        2.70530000       6.56365000      11.56945000       0.09913350       0.06038910      -0.04616600
H        4.67220000       6.49565000      12.02455000      -0.05455020       0.00570622      -0.01112100
H        2.21840000       5.30865000      12.57885000      -0.03820490      -0.07304600       0.06010740
O       12.92910000       0.91591100      10.20160000      -0.11528300       0.21938600       0.01430090
H       12.49640000       1.66779000      11.90090000       0.00559790      -0.02390690      -0.02465800
H       13.65240000      23.92814100      10.24710000       0.10147800      -0.19971400       0.01923730
O       14.57820000      20.57799000      21.41125000       0.01770450      -0.03393210      -0.05044270
H       14.01620000      20.26523000      19.39055000       0.03017520      -0.00262364       0.07530350
H       16.02800000      19.35636000      22.01385000      -0.04803480       0.03928280      -0.02827090
O        9.00193000      12.27075000      13.50935000       0.04114150       0.05685060      -0.03117220
H        9.80395000      13.34385000      14.93017000      -0.02405470      -0.02918270      -0.01948830
H        9.62058000      13.33315000      11.93755000      -0.02185140      -0.04325480       0.04149460
O       20.47990000      17.47900000      12.15500000      -0.06590240      -0.08743080      -0.01932940
H       19.85980000      18.26170000      13.55760000      -0.01182010       0.03993680       0.04907700
H       21.91010000      18.06400000      11.50070000       0.07889470       0.04456340      -0.02953960
O        9.59018000      21.63290000      15.95865000       0.02805800       0.04066850      -0.07386270
H        9.34153000      21.06910000      17.53660000      -0.02799880      -0.03288770       0.07150310
H        8.60452000      20.79350000      14.67504000      -0.01590570      -0.00629614       0.00228205
O       24.33090000       4.99760000       6.70535000       0.02860720      -0.00185497       0.08924000
H        0.34315000       5.35370000       8.65855000      -0.00082261      -0.02257150      -0.07149160
H       23.38570000       6.48250000       6.46995000      -0.02157100       0.02038380      -0.02227170
O       16.10166000       7.89417000       2.59022000      -0.00100265      -0.05458420       0.03490680
H       15.24550000       9.03855000       1.60798000      -0.01013710       0.04582720      -0.03778370
H       14.72599000       6.63000000       2.79851000       0.01691150       0.00240248       0.00814450
O       13.84980000      19.00920000      16.25480000       0.05629750      -0.04477370       0.02795840
H       12.26220000      19.24340000      15.60350000      -0.05470670       0.01507570      -0.01359030
H       13.98590000      17.14810000      16.54310000       0.00254712       0.02354840      -0.00697311
O        3.06771000      16.21800000      19.55555000      -0.08002660      -0.05362140       0.07683530
H        1.92164000      14.27620000      19.72295000       0.03040990       0.05583480       0.01596340
H        3.64597000      15.58540000      18.10475000       0.04629530      -0.01391370      -0.09059700
O       19.10315000      17.28225000      23.91578300       0.00661608      -0.00313445       0.04064420
H       20.34895000      17.17005000       0.88131600       0.02339410       0.01095440      -0.02436770
H       17.96365000      16.56205000       0.74862000      -0.03356210      -0.00700733      -0.01324220
O       21.44480000      10.33980000      17.76740000      -0.03974780      -0.02022820      -0.05402310
H       20.85150000       8.49724000      17.80450000       0.01946050       0.03972170       0.00936106
H       20.99290000      11.01970000      15.97510000       0.00871964      -0.01956810       0.03313470
O        9.82015000      18.05425000       3.52477000      -0.05878190      -0.03842050      -0.01562140
H        8.14895000      16.90555000       3.43521000       0.05490430       0.03142600      -0.00073795
H        9.74485000      18.62935000       5.24550000       0.00525125       0.00169777       0.01271570
O        9.81626000      19.46240000       8.51105000      -0.04525680       0.04711490      -0.02238090
H       11.50530000      19.78200000       8.98365000       0.02265590       0.00395485       0.00818790
H        9.04205000      21.33060000       8.19315000       0.02782430      -0.04921350       0.00377675
O        2.50301000      11.21645000       0.53960300      -0.00834863      -0.00199664      -0.01057530
H        0.92166500      11.43375000       1.45021000       0.00641465      -0.00130960      -0.01004530
H        2.04706000      11.20475000      23.10062000      -0.00207737       0.00406238       0.02989240
O       14.00055000      10.45345000      12.57160000      -0.09487060       0.02544430       0.00515914
H       15.20715000       9.63965000      11.65670000       0.04241190      -0.03403090      -0.03501890
H       12.29575000      10.42395000      11.56810000       0.05793920       0.00324307       0.03177490
O       18.67222000       4.92242000      15.10670000      -0.01087880      -0.01860330      -0.02092010
H       20.06503000       4.97562000      16.28430000       0.00349767      -0.00589456       0.00801680
H       18.85860000       3.24830000      14.19710000       0.00507036       0.02043940       0.01685040
O        0.88305000      11.29405000      20.08872000       0.05298250      -0.03018430      -0.02563140
H       24.00680000      10.80985000      18.66259000       0.01382550       0.00411004       0.03233170
H        2.43995000       9.99445000      19.90152000      -0.04291820       0.04162250      -0.00543781
O       21.34100000       5.33942000      19.23065000       0.04318220       0.00066756      -0.03345450
H       20.46910000       4.95517000      20.66245000      -0.06280200      -0.00554122       0.05247130
H       22.89830000       4.85289000      20.12835000       0.02576860       0.00957607      -0.02114640
O       15.32650000       1.90235000      22.38045000       0.01709350      -0.02530470      -0.00823370
H       17.02370000       2.21665000      23.16265000      -0.01924850      -0.00279131      -0.01479930
H       15.27080000       0.14625000      21.61005000       0.00507788       0.03261830       0.02290670
O        7.77375000      10.39970000      22.84070000      -0.07544710       0.01885590       0.01808050
H        9.43955000      10.21730000      22.83970000       0.10096200      -0.01494660      -0.01833810
H        7.52985000      10.48680000       0.24455000      -0.01574340      -0.00228008       0.00195742
