192
Lattice="24.64241 0.0 0.0 0.0 24.64241 0.0 0.0 0.0 24.64241" Properties=species:S:1:pos:R:3:force:R:3 TotEnergy=-1102.9824 cutoff=-1.0 nneightol=1.2 pbc="T T T"
O       20.14350000      20.89350000      12.28150000      -0.05065900       0.00761291      -0.02110060
H       20.90300000      22.18080000      11.24210000       0.01498880      -0.00418039       0.00281533
H       21.14460000      19.89520000      13.36200000       0.04197180      -0.00773039       0.00978289
O        1.30900000       4.34292000      12.47270000      -0.00233931       0.00632244       0.01022880
H        1.34467000       5.81357000      13.57690000       0.00755406      -0.01632800      -0.00665144
H        2.97330000       3.55574000      12.30970000      -0.00017188       0.01018110      -0.00533689
O       16.50890000       6.05132000      22.87320000       0.01009320       0.00218495      -0.02904740
H       16.24640000       5.76889000      20.82290000       0.03052000       0.02694020       0.06825190
H       18.05720000       6.97719000      23.61750000      -0.03537110      -0.03035690      -0.03681080
O       12.45700000      19.50130000      13.48170000       0.00689021      -0.05148440       0.11110700
H       12.93470000      20.41990000      12.14650000       0.01409750       0.05642030      -0.07496500
H       13.86230000      19.74160000      14.74710000      -0.02644090      -0.00767105      -0.02307090
O       16.86380000      14.72380000      16.65070000       0.09278200       0.08843610      -0.04914990
H       15.31640000      14.60730000      17.32170000      -0.08100000      -0.00922136       0.03640550
H       17.10930000      16.80850000      16.40460000      -0.00477297      -0.07552490       0.01194840
O       18.79400000       2.11421000      14.71350000      -0.01733330      -0.02146640      -0.02199040
H       18.30910000       2.73147000      16.31600000       0.00268640       0.01994020       0.01755410
H       17.06040000       1.60640000      14.16650000       0.01377800       0.00451490      -0.00556225
O       16.74200000      16.96630000       2.65515000      -0.05232740       0.06972580       0.05653370
H       16.81030000      18.50920000       4.28592000      -0.00555505      -0.07782280      -0.07922100
H       14.76800000      16.90850000       2.09578000       0.06129850       0.01220030       0.01738560
O        8.68472000      19.27670000       5.13059000      -0.04982820       0.00404050       0.00476612
H        8.53171000      17.45760000       5.52832000      -0.01270350       0.01981760      -0.00046081
H        6.87457000      20.09750000       4.81999000       0.05723580      -0.03784940      -0.00132967
O       11.67600000      17.55530000       1.52581000       0.01633130      -0.00981006      -0.01606020
H       11.22150000      18.37130000       3.18705000      -0.01237030       0.00601326      -0.04818040
H       11.29470000      18.28470000      24.43068900      -0.00027599      -0.00018517       0.05517480
O       22.33870000      24.10130000       8.12906000       0.00791990       0.04206330       0.16378300
H       22.10640000      23.73790000       6.57244000      -0.02450310      -0.03024970      -0.14966000
H       21.42110000       1.03499000       8.64424000       0.01811420      -0.01761190      -0.01630720
O        0.29285200      18.92340000      24.61000000      -0.08189420      -0.07136150       0.10116200
H       24.30563600      16.98580000       0.23859000       0.02042960       0.07600080      -0.00757585
H        1.19731000      18.96140000      23.20960000       0.06292140      -0.00302594      -0.09722260
O       23.24350000       8.95224000      20.67350000       0.01854210      -0.09971450      -0.09259800
H       22.90170000       9.69643000      22.16960000      -0.01856410       0.01151360       0.06822170
H       23.08350000       6.90763000      20.61660000      -0.00595811       0.08631750       0.01719220
O       22.12780000      24.06298300      17.70340000       0.10490300      -0.01604750       0.17154100
H       22.42230000       1.03781000      18.72690000      -0.00410894      -0.03804600      -0.03150690
H       21.34150000      24.48320600      16.37610000      -0.09228770       0.05062290      -0.14773100
O        5.90735000      11.96230000      17.23350000      -0.01700420      -0.10797500      -0.19385400
H        6.02754000      12.50740000      18.70320000       0.01994480       0.07543360       0.19667500
H        5.29991000      10.17660000      17.31220000       0.01337060       0.02830410      -0.00466431
O       11.88700000      11.74790000       1.04464000       0.02767330       0.02438230      -0.00293364
H       10.15610000      11.70740000       1.52143000      -0.02237360      -0.00759046       0.00152035
H       12.20890000      13.57310000       1.06553000       0.00043727      -0.01590230      -0.00148147
O       17.37490000      20.09290000      16.44530000       0.00288282       0.00626785      -0.04081220
H       18.25680000      20.66790000      17.91120000       0.00667035       0.00229857      -0.00175017
H       18.30290000      20.75170000      14.83850000      -0.01857600      -0.00864067       0.03888090
O        6.51737000       1.55121000       0.76395900       0.13388200       0.12970000      -0.05656950
H        5.63411000       0.23533900       1.06479000      -0.07854580      -0.13315300       0.02900310
H        8.26187000       1.05983000      24.55830700      -0.06108080       0.00510708       0.01757240
O        6.62460000      14.61090000      21.85600000      -0.23210800       0.05168160      -0.26630700
H        4.55771000      13.82570000      21.76950000       0.08115130       0.03715240       0.01592890
H        7.43267000      14.26020000      23.08430000       0.13823500      -0.07954310       0.24769400
O       11.92970000      14.44830000      18.09440000      -0.06893370      -0.03210550       0.03868550
H       10.60240000      15.31240000      19.37440000       0.04578550      -0.04247920      -0.04996840
H       11.36980000      12.54350000      17.89980000       0.02236190       0.07334680       0.02093430
O       15.46170000      14.68530000       8.83094000       0.04341480       0.00893608      -0.04124450
H       14.46530000      14.75210000      10.22600000      -0.04471240      -0.00769171       0.04905620
H       15.95150000      16.41110000       8.57244000       0.00531920       0.00034724      -0.01009370
O       23.04780000      18.42140000      15.54350000      -0.12574100      -0.00122741      -0.08224810
H       24.25130000      18.95580000      16.47680000       0.11680400       0.04934770       0.08650100
H       23.18330000      16.72020000      15.30000000       0.00999124      -0.05602040      -0.00341831
O       22.92330000      24.03100000       1.03349000       0.15955300      -0.02439730      -0.01960400
H       23.77290000      22.46300000       0.22766200      -0.04568420       0.03897580       0.02643300
H       21.27710000      24.11490000       1.02429000      -0.12001900      -0.01324480      -0.00910846
O       16.32040000      11.44940000       5.13262000       0.01386510       0.01009110       0.03202130
H       15.91470000      12.89230000       6.25954000      -0.00461440      -0.00992948      -0.01288370
H       15.13190000      11.49460000       3.81950000      -0.01575320       0.00139733      -0.02225020
O        2.66509000      22.30320000      16.10980000      -0.05535680       0.02907080      -0.02147530
H        3.03203000      22.15810000      14.24120000      -0.01245890      -0.01008100       0.03287900
H        0.89226100      23.20520000      16.35140000       0.04902490      -0.02620550      -0.00951962
O       16.21520000       9.48508000      14.49190000       0.00944529       0.04901100      -0.01017990
H       14.29780000       9.70670000      14.12630000       0.05590230       0.01811420       0.02073960
H       17.43220000      11.19870000      14.62730000      -0.07165780      -0.06623100      -0.00766068
O        6.08607000       1.16046000      16.29840000      -0.01392130       0.01433260      -0.00855820
H        5.52640000       1.96157000      14.71100000       0.01511370      -0.02136020       0.01466200
H        4.85819000      24.41328700      16.57850000       0.01016370       0.01354800      -0.00197248
O       20.80160000      14.28730000       0.78929700      -0.01695440       0.01536560      -0.00603810
H       20.25460000      12.43490000       0.66701400      -0.00434333       0.06661660       0.00982810
H       19.48510000      15.85630000       1.07391000       0.02313930      -0.07915440      -0.00207289
O        8.55622000      13.73350000       7.03804000       0.02943700       0.03025840       0.07192910
H        7.86388000      12.05600000       7.50544000       0.00293059       0.01730140      -0.00387861
H        9.40376000      14.49770000       8.92218000      -0.03179810      -0.03733840      -0.07234420
O       23.37190000       3.39425000      20.94630000      -0.08849250      -0.05526960      -0.00898604
H       22.80640000       2.03586000      22.16220000       0.01639620       0.02971280      -0.01229780
H        0.18689000       4.04895000      21.48540000       0.08108910       0.02054410       0.03228450
O        8.25565000      18.48560000      16.98440000      -0.01233250       0.01417540      -0.03016720
H        7.24346000      18.86990000      15.45000000      -0.00713751      -0.00061422       0.02811710
H        9.81272000      18.56680000      16.07430000       0.02180350      -0.00477132       0.00169290
O        3.65382000      18.99970000      12.19560000       0.01495160       0.05108190       0.00159953
H        2.71822000      17.58240000      12.74470000       0.00144535      -0.03014460      -0.00265895
H        4.81767000      18.76280000      10.83840000      -0.00770377      -0.01392040      -0.00051832
O       10.18380000       5.82195000      11.20560000      -0.00304535       0.05849900      -0.06224670
H        9.15179000       7.15882000       9.92704000       0.03955880      -0.05273210       0.04574460
H       11.94050000       5.68490000      10.42310000      -0.04666830       0.00305442       0.01574600
O       23.16660000      11.82590000      11.67770000       0.04016590      -0.00451591      -0.04578750
H       22.04240000      11.01100000      10.48740000      -0.00853934       0.00623237       0.00863876
H       22.64450000      12.24020000      13.28580000      -0.03289470      -0.00180810       0.04224200
O       11.04100000       2.52189000      18.28850000      -0.03777520       0.00662196      -0.00810627
H        9.14139000       2.54073000      18.11400000       0.03663080      -0.00633952      -0.00743742
H       11.19120000       1.72423000      19.91830000       0.00674469      -0.00393833       0.00981926
O       21.34990000      12.23500000      16.78850000       0.07868420      -0.05336620      -0.00118100
H       21.59550000      10.68340000      17.85250000      -0.00812542       0.03181930      -0.01371240
H       19.77850000      12.89730000      16.95510000      -0.06675220       0.02729640       0.01759750
O       13.63490000       1.25098000      13.55070000      -0.00500331       0.00700564       0.04260490
H       13.70060000      24.27611600      12.63180000      -0.01498710       0.01579250       0.02044190
H       12.74450000       1.38061000      15.34750000       0.01967650      -0.01951150      -0.06114570
O       11.97900000       1.29602000       3.70021000       0.11851800      -0.05332180       0.08027510
H       11.19950000       2.44250000       2.79959000      -0.05772450       0.08898520      -0.06161940
H       13.74930000       2.23016000       4.32596000      -0.05550520      -0.02315480      -0.01651740
O       10.77150000      24.46580000      22.80350000      -0.03577230      -0.04442650      -0.06752710
H       11.45460000      24.13830000      24.35240000       0.03125220      -0.00915358       0.05171870
H       10.15000000      22.37770000      22.18950000       0.00694917       0.06026380       0.03120900
O        2.66549000      14.51780000      14.26540000      -0.03255980      -0.00347011      -0.02283530
H        4.12718000      14.07360000      15.21980000       0.00447174      -0.01626640       0.00462166
H        1.87964000      13.03950000      13.43770000       0.01917210       0.01980430       0.01347350
O       16.39300000       3.85154000       5.49779000       0.06321320      -0.00439183      -0.05482680
H       15.97430000       5.19235000       6.65476000       0.00689912       0.00983594       0.00035398
H       18.21430000       4.36778000       4.43183000      -0.07985970      -0.00609543       0.05955570
O       21.35440000      11.35320000       6.98335000      -0.11814000      -0.04779860       0.00480399
H       21.68320000      13.05020000       7.04376000       0.01686940       0.05257490      -0.00448442
H       19.11610000      11.43650000       6.90093000       0.09760100      -0.00821875      -0.00936182
O       17.40200000       0.24683500      23.56380000      -0.05237510       0.02249580      -0.07180290
H       15.97880000       1.58382000      23.61830000       0.04388080      -0.02905660       0.00440080
H       17.19880000      24.44572400      21.62870000       0.01239100       0.01000430       0.06959060
O       16.22150000       5.52640000      17.82830000       0.03264810      -0.01953200       0.02742710
H       14.55580000       5.05838000      17.70140000      -0.05320780      -0.02079540      -0.00334135
H       16.32340000       6.89426000      16.70100000       0.01144170       0.03574460      -0.02284900
O       12.32320000       6.50308000       1.23872000      -0.01609680       0.05116020       0.01231750
H       13.86610000       5.92071000       0.60651100       0.02981610      -0.01705290      -0.02055840
H       12.67410000       8.38367000       1.10314000      -0.01475350      -0.03505230       0.00326387
O       13.32540000      22.21680000       9.56355000       0.02657090      -0.03054260      -0.05061660
H       14.31620000      20.71830000       8.60796000      -0.02698580       0.06413880       0.02462420
H       12.58780000      23.41400000       8.30400000       0.00827417      -0.02662990       0.02115860
O        9.28656000      19.94480000      21.93330000       0.15138000       0.05759540      -0.13496400
H        9.28980000      20.14120000      19.69450000      -0.01690470      -0.02383940       0.08235120
H        7.82057000      19.38790000      22.37860000      -0.13421100      -0.04342730       0.03767890
O       17.39650000      23.43900000       4.67376000       0.02743970      -0.09263310       0.07823940
H       17.10530000      23.92580000       3.12859000      -0.02241180       0.03923280      -0.11221200
H       17.44230000       0.10329000       5.79168000      -0.00405399       0.05236000       0.02942350
O        6.94055000      12.46390000       2.02670000      -0.03239080      -0.03371680      -0.06322610
H        5.53163000      11.17040000       1.96969000       0.04247220       0.03651160       0.02804380
H        7.63415000      13.24600000       3.45276000      -0.01338970      -0.00052527       0.04500450
O        1.31104000      13.51840000      20.94700000       0.05825230       0.14625800       0.09395770
H        0.26393500      15.03710000      20.79080000       0.00849720      -0.03092150      -0.00880384
H        0.87968400      12.19030000      20.13240000      -0.05632710      -0.11636700      -0.08322770
O       21.40150000       3.92939000      10.08180000      -0.03452700      -0.00381295      -0.00991392
H       23.14380000       3.90437000      10.37410000       0.03128220      -0.00049499       0.01502170
H       20.57940000       3.41548000      11.62420000      -0.00304835       0.00574441       0.00733562
O       21.04730000       6.34781000       5.58555000       0.00756241       0.01895610       0.01233380
H       21.35610000       8.26425000       5.64700000      -0.00214989      -0.04653770       0.01461050
H       21.34540000       5.48796000       7.27631000      -0.00784115       0.02975480      -0.03061920
O        3.58080000      19.60340000      20.37630000       0.00614534       0.00691655      -0.02885870
H        5.09564000      18.60170000      19.90690000      -0.03148820       0.01391260       0.00090977
H        3.05302000      20.67120000      18.84210000       0.02341800      -0.02927630       0.03034190
O        1.27782000       8.24793000       8.87632000       0.00255616       0.00340533       0.03743610
H        1.36076000       6.68539000      10.02180000      -0.00280819       0.04651760      -0.02377070
H        0.82219900       9.83999000       9.91714000       0.01220630      -0.05191060      -0.02229630
O       10.88000000      10.14140000      14.71290000       0.02661270       0.03864430       0.03318040
H       10.11040000       8.99992000      13.63850000      -0.02821190      -0.03001930      -0.02491300
H        9.70378000      11.11210000      15.74110000      -0.01048530      -0.01719110      -0.01740560
O        6.03913000       2.48382000      11.07690000       0.00367399       0.02315080       0.02285300
H        7.45304000       3.61681000      11.45870000      -0.00467335      -0.00231346       0.00510552
H        6.63097000       1.93714000       9.49021000      -0.00022531      -0.02447380      -0.02750240
O        6.80879000       9.04027000       7.69238000      -0.08275310      -0.02582950       0.02122320
H        4.93106000       8.24701000       7.39537000       0.06068440       0.03677570       0.02236750
H        7.65391000       8.23983000       6.38215000       0.02115900      -0.01850770      -0.03770860
O        7.46144000       6.43225000       3.01196000      -0.00480536       0.06803870       0.08057730
H        6.91631000       5.32413000       1.91020000      -0.06146070      -0.09191280      -0.06434870
H        8.97213000       6.69343000       2.21349000       0.06373320       0.02045720      -0.01295490
O       10.81940000      14.99650000      11.57270000       0.00290364      -0.03324020       0.03186600
H       10.99330000      13.86880000      13.10520000      -0.00622860       0.02065290      -0.03625050
H       11.22130000      16.65720000      12.16680000       0.00394723       0.01315880       0.00683302
O       21.11210000       6.90310000       0.54432600      -0.03418040       0.09634840      -0.02910740
H       21.17670000       6.65745000       2.24815000      -0.00751719       0.01723650       0.08194880
H       21.72960000       5.39266000       0.29402200       0.04505930      -0.11086400      -0.05058230
O        3.95937000      21.39310000       2.80061000       0.07702630      -0.23188900      -0.28860400
H        2.55920000      20.62540000       1.74696000       0.02070130       0.01483000       0.03648370
H        3.64690000      22.29690000       3.92394000      -0.09489940       0.21589200       0.26216100
O       14.83290000       8.21957000       8.63881000      -0.05095500      -0.15484900       0.19268300
H       15.16930000       9.21603000       7.45292000       0.04811220       0.13894900      -0.12958700
H       15.12730000       8.59589000      10.48980000       0.00662759       0.00740085      -0.05694500
O       17.57800000      19.49290000       7.78907000      -0.00760916      -0.07906290       0.09950070
H       18.55390000      19.27150000       9.54598000      -0.02262840       0.02214630      -0.06016510
H       18.19600000      20.76900000       6.83622000       0.03116630       0.05964930      -0.03291550
O        6.10036000       6.63982000      16.04150000      -0.08317800       0.04021590      -0.02247610
H        7.70126000       6.31144000      16.37840000       0.10550200      -0.01013680       0.01485590
H        5.36842000       5.16335000      16.66050000      -0.02315120      -0.02823230       0.01178980
O        8.53170000      24.10960000       6.81131000       0.05847100       0.01492860      -0.03579290
H        8.93391000      22.29120000       6.72428000      -0.00455476       0.02348250       0.00314145
H       10.13150000       0.37759000       5.46654000      -0.05364080      -0.02914650       0.04039610
