192
Lattice="25.00564 0.0 0.0 0.0 25.00564 0.0 0.0 0.0 25.00564" Properties=species:S:1:pos:R:3:force:R:3 TotEnergy=-1102.50958 cutoff=-1.0 nneightol=1.2 pbc="T T T"
O       20.70540000      21.20750000       7.19141000       0.15657400      -0.14041600       0.13994500
H       19.64280000      21.89460000       6.28627000      -0.15265700       0.09269840      -0.13848600
H       20.70790000      19.32080000       6.89033000      -0.00227129       0.04706580      -0.00466027
O       17.92450000       2.24049000       5.40424000       0.01601890       0.01073120       0.04634800
H       19.07060000       3.10335000       4.34611000       0.00669615       0.00291361      -0.03568310
H       18.81030000       2.88377000       6.95213000      -0.03012220      -0.01257000      -0.01198900
O       19.55910000       5.33501000       9.64355000      -0.05161500      -0.17286800      -0.08228220
H       20.94860000       4.18084000      10.15390000      -0.02187000      -0.02016190      -0.01037570
H       20.30630000       6.48807000      10.40570000       0.07610630       0.18704800       0.09517370
O        9.92169000      16.96600000      14.20350000       0.02165900      -0.01628980       0.05857480
H       10.00860000      16.14670000      15.98250000      -0.00945897       0.02746970      -0.05247980
H       11.25990000      18.23900000      14.30100000      -0.01298310      -0.01936030       0.00398141
O       19.42500000      17.08490000      16.77080000      -0.05005660       0.05926600       0.02574180
H       18.15440000      18.60750000      16.19580000       0.05202570      -0.06532080       0.03028460
H       19.19450000      16.94180000      18.70250000      -0.00268343       0.00084005      -0.05678070
O        2.89928000      14.61000000       9.11119000       0.19591400       0.01285430      -0.08858320
H        1.77991000      14.43420000       7.91334000      -0.08064040      -0.01594480      -0.09988070
H        2.03416000      14.62350000      10.41420000      -0.11380800       0.00423761       0.19133200
O       14.29310000      10.79620000      23.20460000       0.02901980       0.07005430      -0.08851430
H       13.45680000      12.32570000      22.38380000       0.01350560      -0.04800690       0.02150130
H       13.38680000      10.42780000      24.59860000      -0.05126700      -0.00100453       0.06566880
O       19.20760000      23.97300000      16.30920000       0.13965200      -0.11208000       0.04279540
H       20.39300000      24.87760000      17.40240000      -0.00371895      -0.00758403      -0.00529860
H       18.08880000       0.02796000      15.91150000      -0.13070100       0.12380600      -0.04776350
O        1.45491000      23.29000000       6.13791000      -0.05215260       0.02079490       0.01404550
H        0.23137900      23.14420000       7.49855000       0.01564930      -0.02252990       0.00944016
H        0.39163500      24.66650000       5.48176000       0.03241810      -0.00460700      -0.01896630
O        8.85056000       5.10241000      10.06700000      -0.06590470      -0.06929670      -0.03830050
H        9.98155000       5.90884000      10.95450000       0.11059700       0.03051050       0.08153230
H        8.40038000       6.64264000       9.39005000      -0.04694840       0.03918300      -0.04481040
O        2.48484000      23.45570000      12.84820000       0.09398910       0.02512130       0.00781193
H        0.80082200      23.05800000      12.79860000      -0.04191630      -0.05446570       0.00475407
H        3.90538000      22.21940000      12.87360000      -0.04155310       0.00423256      -0.00445123
O       20.87260000       1.89681000      20.36520000      -0.01918180       0.09490690      -0.07194700
H       20.74450000       0.53663900      21.29710000       0.00763510      -0.10412000       0.07621190
H       19.07600000       2.20360000      20.06900000       0.01139740       0.01747510      -0.00182235
O        2.46533000       8.78410000      14.23270000      -0.04578110      -0.08071380      -0.06881720
H        0.85727700       9.23821000      14.93610000      -0.03708150      -0.01102310      -0.02784220
H        3.28703000       9.85393000      15.13660000       0.09959720       0.08606580       0.08089160
O       14.86810000      23.49930000       8.67922000       0.03559490      -0.03194540       0.07118770
H       13.65800000      23.98900000       7.58464000      -0.05350800       0.03502120      -0.04986220
H       16.47140000      23.49950000       7.96718000       0.02368610       0.00754643      -0.01882910
O        9.53000000      23.51440000      19.46680000       0.04535590       0.00414790       0.06154310
H       11.29610000      23.07960000      19.16650000      -0.01452060      -0.00062638      -0.01690390
H        9.84264000      23.70950000      21.36920000      -0.02126140       0.00076114      -0.04539430
O       24.32340000      12.95120000       5.65066000       0.02049150       0.02367430      -0.03758480
H       24.24210000      14.24050000       4.22185000      -0.00919344      -0.02826260       0.03979120
H       22.69410000      12.75280000       6.41501000      -0.00929705       0.00041974      -0.00005340
O        5.99855000      18.91540000      10.92980000      -0.16869900       0.05810150      -0.12280300
H        5.24677000      17.44570000       9.94056000       0.00378471       0.03937510       0.01569120
H        7.10830000      18.09980000      11.68270000       0.15775000      -0.09792170       0.11277800
O        2.00054000      10.89230000      22.34780000      -0.04403570       0.00576681      -0.01821060
H        0.52110800      10.93560000      21.06360000       0.06470920      -0.01514300       0.03878800
H        3.39977000       9.76479000      21.94290000      -0.01695420       0.00695209      -0.00595696
O       14.20780000       1.67719000      15.61670000       0.12925900       0.02239830      -0.08249600
H       13.91450000       2.28726000      17.11480000      -0.01143830       0.05528330       0.11909000
H       12.79790000       0.95262500      15.25290000      -0.11969400      -0.07232230      -0.03991440
O       15.91090000       6.26692000      24.48830000      -0.12835700      -0.03106270      -0.03528490
H       17.43320000       6.68580000      24.92330000       0.11713300       0.03609280       0.03991780
H       14.82830000       7.76530000      24.53750000       0.02137690      -0.02422000      -0.00353940
O       14.40910000       5.80003000      11.29530000       0.01899010      -0.07884030       0.00672037
H       15.82770000       5.08078000      10.20180000      -0.02906300       0.02783890       0.02460680
H       14.04970000       4.14269000      12.30910000       0.00913815       0.05324860      -0.02409030
O       15.13800000      21.51010000      17.61510000      -0.05061650      -0.06478180      -0.13115000
H       16.71130000      21.85920000      16.96210000       0.04164890       0.02178890      -0.00655243
H       15.00860000      21.93720000      19.17180000      -0.00059548       0.03448170       0.14437000
O       10.68790000       0.69527600       6.47504000       0.05833130       0.04057090      -0.01874890
H       10.88080000       2.32656000       7.32518000      -0.00578436      -0.01550470      -0.00490338
H        9.38271000      24.87756500       7.24216000      -0.05294700      -0.02591470       0.02872740
O       18.69810000      14.72530000      21.90200000       0.05699760       0.07304780       0.01008920
H       19.11700000      16.36500000      22.93230000      -0.02941870      -0.06224590      -0.02445150
H       17.28710000      13.88430000      22.51250000      -0.03204720      -0.00631413       0.02296980
O        2.84497000      21.94480000       1.54971000       0.02543100      -0.01079200      -0.07826590
H        1.43318000      21.67170000       2.51811000      -0.03489170      -0.00301805       0.03324660
H        2.38377000      21.12420000      24.88601100       0.01883070       0.01783460       0.04092330
O       13.94440000      19.59640000      11.89620000       0.01117250       0.02002570      -0.01120680
H       12.37940000      20.40830000      12.39260000       0.01186950       0.00189406      -0.00913051
H       14.82450000      20.95900000      10.92090000      -0.01832010      -0.01552260       0.01395260
O        3.22606000      13.31640000      17.75290000      -0.02956250      -0.07622530      -0.04168090
H        2.93535000      12.55430000      16.00140000       0.01152850       0.05331050       0.04849400
H        3.81638000      14.95610000      17.64540000       0.01526550       0.03619800      -0.01197010
O       22.63160000       1.72352000       2.72605000       0.01790310       0.01833940      -0.01887730
H       22.69840000       1.63572000       4.57603000       0.01497920       0.01518490      -0.02813480
H       24.06880000       2.78708000       1.90952000      -0.04104930      -0.03288420       0.04095910
O       18.36030000      12.36670000      13.58450000       0.09148210       0.07442470      -0.01310940
H       17.20420000      11.18790000      13.51520000      -0.08665450      -0.08714650       0.00327284
H       17.69350000      13.73810000      14.51030000      -0.00146978       0.01367350       0.01299110
O       15.06640000      21.54010000      23.28910000      -0.13358100      -0.11867700       0.04430150
H       15.99960000      22.82850000      23.10630000       0.10899900       0.13519400      -0.01726600
H       13.81050000      22.14310000      24.58130000       0.02231540      -0.01582440      -0.02593050
O        6.74218000      10.29160000       4.08214000       0.09708130       0.05355980       0.03619900
H        6.25776000      11.42140000       5.41696000      -0.00101731      -0.00372455      -0.00563692
H        5.35625000       9.58027000       3.48126000      -0.09354880      -0.04897300      -0.02610470
O        1.84830000       8.48398000       3.72682000       0.09663940      -0.04779250       0.22975400
H        1.43528000       8.46571000       2.25461000      -0.07691330       0.00128645      -0.25589200
H        1.32743000       9.90840000       4.54801000      -0.02807170       0.05039950       0.02208720
O        7.48963000      19.95550000      24.40798000      -0.03821510      -0.06402690      -0.03144670
H        8.56105000      19.50410000       0.67223300       0.03242240      -0.02257920       0.04612040
H        7.84682000      21.59890000      24.30000100       0.00856985       0.08557530      -0.01219080
O        6.25966000       7.75951000      23.88210000       0.00775596       0.03878680       0.03050250
H        5.20216000       6.20454000      24.16640000       0.02318210       0.03912560       0.02195830
H        6.63229000       9.23441000       0.30856000      -0.02723070      -0.08043810      -0.05646720
O       10.37140000      11.67300000      13.53370000       0.05097230       0.07246990       0.00699795
H       11.06630000      13.47990000      13.00730000      -0.02964740      -0.05517800       0.02340720
H        9.81246000      11.08260000      11.97660000      -0.02341640      -0.01674320      -0.02946580
O        1.36857000       3.56129000       5.65411000      -0.10461200      -0.03407970      -0.10703500
H        2.41349000       2.96881000       6.72728000       0.10521400      -0.05356010       0.11171900
H        1.32281000       5.24173000       5.68900000       0.00305314       0.08995510      -0.00008444
O       21.80460000      10.88430000      19.94150000      -0.12916600      -0.16039200      -0.01082920
H       20.16910000      11.11370000      20.94020000       0.03837270      -0.01212430      -0.03132440
H       22.46770000      12.25280000      20.36720000       0.08908410       0.17698700       0.04617660
O       13.38840000       5.31677000       4.86602000       0.18765800       0.07866410       0.11412400
H       12.04670000       5.00935000       4.15004000      -0.19066300      -0.06260050      -0.10702400
H       14.60960000       4.01342000       5.00209000       0.00323629      -0.01423040      -0.00525918
O       23.57730000       2.22870000      11.52620000       0.01386650      -0.04618460       0.01116060
H       24.84430000       3.49988000      11.11950000       0.00661073      -0.01805410       0.00519715
H       24.50100000       0.52690200      11.97530000      -0.03497060       0.07728330      -0.02154280
O        4.94193000       1.96793000      24.16550000       0.07038690      -0.03902760       0.12644900
H        4.11457000       2.24080000      22.75320000      -0.06192290      -0.00785214      -0.08835830
H        4.75521000       0.29191600       0.11596000      -0.01401940       0.04386940      -0.03881230
O        6.09835000      10.02580000      10.10060000       0.00613930      -0.11192500       0.12287000
H        5.35542000      11.19500000       9.16515000      -0.05747750       0.07114630      -0.04197080
H        4.38267000       9.16003000      12.02420000       0.04114370       0.03615940      -0.07328740
O        7.44277000       6.94932000      15.62330000       0.26760800      -0.08615760      -0.06898100
H        6.09964000       7.42979000      16.14740000      -0.24755500       0.07630510       0.07177560
H        7.70231000       6.42065000      13.92920000      -0.02187060       0.00191111      -0.00261780
O        3.45544000       2.79871000      10.64780000       0.01235660       0.04602280      -0.01953860
H        3.14621000       1.23379000      11.47630000       0.01879020      -0.01549760       0.00949573
H        5.18661000       3.44446000      10.72180000      -0.01696850      -0.01860150       0.00430413
O       22.33530000       9.17405000      15.15850000       0.02614500      -0.00219418       0.02110920
H       20.91700000      10.46690000      15.01700000       0.03269670      -0.01978030       0.02159240
H       23.29420000       8.88673000      16.85070000      -0.06226850       0.02111460      -0.04306440
O       14.64720000       9.26126000      15.91070000       0.00700742       0.12748500       0.03487480
H       14.43710000       7.75351000      15.32630000      -0.00881217      -0.13562100      -0.04415490
H       13.29340000      10.05040000      14.97260000      -0.00506863       0.01358460       0.00382554
O       16.36410000       5.09144000      19.04180000       0.04327130       0.07664340       0.00694556
H       16.88130000       6.69733000      20.48100000      -0.03002380      -0.07642200      -0.07360980
H       16.94060000       5.64813000      17.23350000      -0.01313720      -0.01000380       0.06777480
O       23.80530000       5.70107000      22.90050000       0.09182430       0.19583800       0.06205260
H       22.53660000       7.15134000      22.73110000       0.05003000      -0.01936960       0.00742027
H       22.75110000       4.64471000      22.43780000      -0.13572000      -0.17771500      -0.07064360
O        0.63921200      17.06700000      24.21680000       0.03532780      -0.07739580       0.07289040
H        2.17827000      15.91240000      24.05180000      -0.04246590       0.04000830      -0.01488810
H        0.22474600      18.14010000      22.95980000       0.00408028       0.03661380      -0.06681210
O       11.98590000       1.02577000       0.34855000       0.02506220       0.09692060       0.00860614
H       10.53490000       2.19974000       0.50842400       0.00229152      -0.03095430      -0.00375358
H       13.24910000       2.61034000       0.47142300      -0.02726340      -0.06549540      -0.00932146
O       11.81530000      20.70900000       3.64400000      -0.00217340       0.32160500      -0.14743600
H       11.94410000      19.53290000       4.52054000       0.02447620      -0.30831700       0.19534400
H       12.40970000      21.97280000       5.01548000      -0.02280010      -0.01683300      -0.05726700
O        6.28353000      23.26710000       8.01856000       0.18166500       0.03806820       0.18131100
H        5.53188000      23.22730000       6.69504000      -0.10964200       0.01670990      -0.27155000
H        4.96035000      22.50760000       8.70075000      -0.06353940      -0.05049500       0.08403190
O        6.87966000      15.23190000      20.98080000      -0.08189800       0.06947130      -0.05764790
H        7.81259000      15.41640000      22.32740000       0.06148610       0.03245070       0.10118800
H        7.38866000      13.71860000      20.48090000       0.01943700      -0.09920240      -0.04294060
O       15.33950000      14.04160000       5.76530000       0.01057720       0.00140167       0.01415810
H       14.20080000      12.84870000       5.13607000      -0.01580560      -0.02517020      -0.04566910
H       14.47730000      13.99120000       7.32917000       0.00400363       0.02224750       0.02838100
O       11.98990000      10.38640000       2.97641000       0.01278850      -0.03348210       0.05774010
H       10.34590000      10.28420000       3.69830000      -0.04461450       0.02298580      -0.02324480
H       12.38520000       9.19848000       4.42037000       0.03281540       0.00728131      -0.03553840
O        4.55952000      23.58770000      18.86390000      -0.10111000      -0.03741750      -0.03499610
H        3.63491000      24.11130000      17.30930000       0.02430410      -0.00265828       0.02637640
H        5.96110000      24.52240000      19.05790000       0.06566790       0.03973740       0.00174154
O       19.94760000      11.28720000       8.44156000       0.04683280       0.00393562       0.01230400
H       18.39210000      11.04670000       7.77834000      -0.05809290      -0.02821240      -0.05758730
H       19.20820000      12.28710000       9.70077000       0.01616640       0.02568110       0.04421940
O       22.10570000      17.21590000       3.40482000       0.03216020      -0.02223700       0.20408500
H       22.92310000      18.26250000       2.50594000       0.09581150       0.10904200      -0.08700410
H       21.12660000      16.51020000       2.37785000      -0.12004400      -0.08617140      -0.11527200
O       24.74240000      15.48980000      13.78850000       0.03500750       0.09946470      -0.04023710
H       23.98150000      17.03330000      14.50440000       0.00947605      -0.02135170      -0.01127400
H       23.99950000      14.22540000      14.58260000      -0.04916320      -0.07725860       0.04799500
O       22.83970000      21.65520000      12.68920000       0.13225800      -0.11158100      -0.02790370
H       22.40620000      20.63950000      11.21430000       0.01883590      -0.00105437       0.00619170
H       21.49470000      22.50710000      12.68720000      -0.15542800       0.11210800       0.02339770
O       11.08950000      17.02910000       8.03319000       0.06641570      -0.03171970       0.03114130
H       10.69860000      18.58840000       7.43846000      -0.04120820       0.05443140      -0.02214860
H       12.76210000      17.62670000       8.77053000      -0.03440410      -0.02501860      -0.00067014
O       17.15570000      17.61360000       2.08170000      -0.05705090       0.10450200      -0.04600410
H       17.22430000      16.11740000       2.80149000       0.00215596      -0.09749520       0.05371990
H       15.29490000      18.07600000       2.26342000       0.05047440      -0.00632821      -0.01018080
O       20.33890000      23.34050000      24.02110000      -0.00317064      -0.06201810      -0.04369630
H       20.86430000      21.58660000      24.36960000      -0.00969044       0.02690830      -0.01010550
H       20.57980000      24.13430000       0.52146000       0.01315880       0.03729610       0.05524350
O        8.87967000      10.48740000      19.61190000       0.12097800       0.14473300      -0.05848360
H        8.01637000       9.15859000      19.55550000      -0.10955500      -0.16028500       0.01895110
H        9.55322000      10.28470000      17.81550000      -0.00690846       0.01856400       0.04148340
O       24.58490000      20.98900000      19.79090000      -0.07719460      -0.04544460       0.00765613
H       23.35950000      19.59920000      18.98850000       0.06795330       0.05712270       0.01256920
H        1.21786000      21.41400000      19.20450000       0.00971193      -0.01458330      -0.01830560
