192
TotEnergy=-1103.43882000 cutoff=-1.00000000 nneightol=1.20000000 pbc="T T T" Lattice="24.57317000       0.00000000       0.00000000      -0.00000100      24.57317000       0.00000000      -0.00000100      -0.00000100      24.57317000" Properties=species:S:1:pos:R:3:force:R:3:Z:I:1
O              22.51580000     -4.87120000    -29.38750000     -0.02731440      0.02769810     -0.01114280       8
H              21.00690000     -4.32892000    -30.48430000      0.04051590     -0.02630670      0.00502313       1
H              23.57960000     -6.26039000    -29.91090000     -0.01552340      0.00487806     -0.00876071       1
O              47.57790000     44.99270000      0.02396400      0.01137390      0.06826610     -0.01037740       8
H              48.39660000     46.80570000      0.38360900     -0.03129950     -0.05578600     -0.00099805       1
H              46.88980000     45.22000000     -1.74759000      0.02124670     -0.01791110      0.02762710       1
O              10.57590000      6.07328000     15.26620000     -0.19429900     -0.05428250     -0.12773900       8
H              12.01510000      5.88318000     15.82240000      0.21829100     -0.01438030      0.09807440       1
H              10.58040000      4.36913000     14.11630000     -0.01412870      0.05702810      0.02699250       1
O              -6.26350000     -9.75209000     -3.74451000      0.06368960      0.07733730     -0.01761910       8
H              -4.49915000     -9.30106000     -4.79142000     -0.05262860     -0.04104240      0.04030170       1
H              -6.28746000     -8.13904000     -2.67200000     -0.00645037     -0.04065980     -0.01487540       1
O               5.20261000     32.97620000     19.87910000      0.02007410      0.02962660     -0.01735710       8
H               5.93004000     34.51430000     20.78080000     -0.00611954     -0.03852030     -0.02202060       1
H               5.94320000     32.92170000     18.10310000     -0.01363410      0.00986390      0.03634420       1
O              -5.19948000      9.15565000      6.92113000      0.00112573      0.01159290     -0.00677268       8
H              -5.93088000      8.29793000      8.43846000      0.00100476     -0.00004498     -0.03234130       1
H              -6.06549000      9.16714000      5.22935000     -0.00076519     -0.01315690      0.03574190       1
O              46.02110000     26.83100000     11.94430000     -0.04901840     -0.00456381     -0.01416560       8
H              47.66210000     26.74570000     12.40750000      0.08067830      0.01521160      0.02604420       1
H              45.83300000     25.09330000     11.53000000     -0.02537310     -0.01334040     -0.01169230       1
O              -1.75346000    -31.63390000      7.75267000     -0.03641040     -0.03870620     -0.02112820       8
H              -1.11512000    -32.36270000      6.15323000      0.00882590      0.01703600      0.01236220       1
H              -3.36100000    -32.74050000      7.80135000      0.02669450      0.02651190      0.00579982       1
O              30.99910000    -33.28120000     19.11450000      0.06852260     -0.03516660      0.11191400       8
H              29.79700000    -33.21940000     17.88760000     -0.06595710     -0.01270330     -0.03687380       1
H              30.74510000    -34.39820000     20.82410000     -0.00151416      0.04334180     -0.08077630       1
O               9.13016000    -28.06980000    -24.81890000      0.00694856      0.00315510     -0.00273308       8
H              10.69940000    -27.64230000    -25.67490000      0.00188625     -0.00249083      0.01059310       1
H               9.46697000    -29.60370000    -23.88080000     -0.00131084      0.00244825      0.00376842       1
O              -9.76613000      2.13342000      8.03931000     -0.01099440     -0.00666960      0.06935800       8
H              -9.82737000      2.18233000      6.32903000     -0.00791039      0.00493866     -0.07532850       1
H             -11.52290000      2.06390000      8.63640000      0.01899660      0.00253701      0.00112903       1
O             -10.83090000     27.29060000     51.78460000      0.00769059     -0.01404210     -0.10048000       8
H             -12.50860000     28.02740000     51.41820000      0.01519560     -0.01306000      0.01684670       1
H             -10.31930000     26.65870000     49.81010000     -0.01638310      0.02854790      0.08962690       1
O              16.18290000    -31.21350000    -14.24530000      0.00975581     -0.01151360     -0.09333000       8
H              16.72470000    -32.63420000    -15.53760000     -0.00979093      0.03236020      0.04409680       1
H              16.52280000    -31.81270000    -12.66250000      0.00605688     -0.02507420      0.05126800       1
O              29.71240000     14.21520000     36.87250000      0.02290940      0.07156720      0.07174270       8
H              28.19610000     15.05830000     37.57350000      0.03043370     -0.00016658      0.02470600       1
H              28.73780000     13.51980000     35.72190000     -0.04530620     -0.07542180     -0.09229570       1
O              -0.53353700      0.40416200      2.39107000     -0.11224400     -0.03602710      0.04361500       8
H              -1.22530000     -0.47313600      4.14781000      0.05185420      0.02437360     -0.04985500       1
H               1.11672000      0.80235800      2.18385000      0.07081670      0.00918800      0.01089130       1
O             -30.79030000     22.97540000     34.16600000      0.04250860     -0.03278690      0.01859520       8
H             -31.91820000     23.95030000     33.17340000     -0.02710370     -0.00577785     -0.00110851       1
H             -31.04930000     21.12750000     34.52410000     -0.01935840      0.03513860     -0.01821670       1
O             -34.21010000     12.03980000     23.77640000      0.01643860      0.00455874     -0.05591590       8
H             -34.96750000     11.61640000     22.09580000     -0.01583760      0.00108779      0.02621690       1
H             -32.76870000     12.80760000     22.82980000     -0.00038106      0.00170458      0.02511860       1
O             -19.06540000     64.12770000    -21.25900000     -0.03788630      0.07218350      0.11118300       8
H             -18.79000000     62.93560000    -19.86040000     -0.00171310     -0.00304598     -0.00655789       1
H             -18.62920000     63.45920000    -22.69060000      0.03679940     -0.06185910     -0.10841300       1
O              68.29460000     20.66570000     40.50770000     -0.05497050     -0.03173110      0.01379950       8
H              67.27270000     22.23490000     40.51120000      0.01004810     -0.02423370     -0.00002679       1
H              66.94440000     19.07350000     40.75370000      0.03542920      0.05534250     -0.01720970       1
O              57.76830000    -21.37380000      3.59156000     -0.03872180     -0.04259120      0.07347950       8
H              56.92230000    -22.25850000      5.24167000      0.03517920      0.05527750     -0.03096260       1
H              57.04480000    -22.75860000      2.69743000     -0.00418431     -0.00266851     -0.03936830       1
O              31.07060000     19.05710000    -14.52770000      0.03566850      0.05078490     -0.02106020       8
H              32.88650000     19.20090000    -15.11940000     -0.03291460     -0.00817934      0.01156670       1
H              30.59340000     17.38610000    -14.26930000      0.00111413     -0.04085590      0.00943731       1
O             -17.54080000      9.07365000     63.51090000      0.00309822      0.01725760      0.00492266       8
H             -17.50700000     10.81080000     63.00590000     -0.01343740      0.00931594     -0.00549864       1
H             -15.75990000      8.70604000     63.61090000     -0.00089306     -0.01553300      0.00332612       1
O               5.20924000      0.18188100      0.42495100     -0.00380212      0.01793190     -0.01116370       8
H               4.94475000      1.44188000     -0.96417200      0.00550641     -0.02338980      0.02072260       1
H               6.44464000     -1.09630000     -0.01239000     -0.00428231      0.00620253     -0.00296284       1
O              44.62380000      3.91765000     26.16170000      0.04587120     -0.06196450     -0.01432050       8
H              44.29870000      5.35494000     27.08260000     -0.00678511      0.04022850      0.02485240       1
H              46.17030000      3.00855000     26.87430000     -0.03117980      0.01584760     -0.01327020       1
O              -0.46439100     60.82050000     30.32290000      0.07586210     -0.00644318     -0.00406918       8
H              -1.97745000     60.13060000     30.73310000     -0.06830260     -0.01522100      0.01082060       1
H              -0.39609300     62.49490000     29.72760000     -0.01095970      0.01416020     -0.01120010       1
O              10.62680000     37.52420000     10.56890000     -0.03517510      0.01392530     -0.04758040       8
H               9.47945000     37.72700000      8.82675000      0.04285980     -0.02263970      0.06562820       1
H              11.93270000     36.25810000     10.41610000     -0.00595856      0.00680665     -0.00988658       1
O             -17.91820000     21.03460000     19.95010000     -0.01191240     -0.00801122     -0.01899370       8
H             -18.06250000     19.21300000     19.44000000      0.00588743      0.02674550      0.01832150       1
H             -17.18750000     21.14390000     21.63190000     -0.00093930     -0.01311760     -0.00483718       1
O              32.23080000     33.02390000     51.68630000      0.10517900      0.01505370      0.04791390       8
H              32.50630000     31.31200000     52.03340000     -0.00401994     -0.03286870      0.00331842       1
H              30.77990000     33.34580000     50.92620000     -0.09833640      0.01356240     -0.04387270       1
O              12.12040000     35.92720000     19.26350000     -0.07539700      0.19090600      0.03377230       8
H              12.21630000     36.98800000     17.67580000     -0.00998497     -0.00452437      0.02721960       1
H              12.75290000     34.56860000     18.80120000      0.08483390     -0.19447300     -0.05538440       1
O               2.31451000    -25.24510000     18.67930000     -0.02667140     -0.00305203     -0.00336819       8
H               0.64243200    -26.16880000     19.00720000      0.05953590      0.00533857      0.00228170       1
H               3.99119000    -25.86210000     19.34630000     -0.03552690     -0.01921440     -0.00461284       1
O               0.12855200     16.11220000      2.84208000      0.02596980      0.07531550     -0.03714560       8
H               1.82241000     16.45830000      2.07189000     -0.01072590     -0.03700170      0.02560600       1
H              -0.26577800     17.93900000      2.27758000     -0.02397920     -0.03929700      0.01240530       1
O               1.94742000      1.78481000     13.70270000     -0.01960070      0.01659950      0.06708750       8
H               2.28338000      0.57620500     12.52140000      0.02077950     -0.04142800     -0.05431800       1
H               1.96133000      0.67739700     15.23610000      0.00238710      0.02675660     -0.00733787       1
O             -34.24140000     55.64040000    -30.95670000     -0.12496800      0.04680080      0.01259500       8
H             -32.72640000     55.48380000    -31.54690000      0.13252700     -0.00911066     -0.05904580       1
H             -34.28200000     54.46560000    -29.69700000     -0.00343540     -0.03814750      0.04874690       1
O               6.31168000     51.47460000    -15.76400000      0.03142310     -0.15554700     -0.06854470       8
H               5.71202000     52.89020000    -15.15730000     -0.05629590      0.10423900      0.04497010       1
H               4.96237000     49.92750000    -15.84300000      0.03641950      0.05039050      0.01418270       1
O             -34.61270000     39.76450000      3.84153000      0.05203460     -0.03817730     -0.03978030       8
H             -34.71180000     38.62750000      2.32883000      0.00085923      0.01237950      0.02211780       1
H             -36.20510000     40.49650000      3.91383000     -0.04630190      0.02134490      0.00849491       1
O              19.79140000     36.08920000     14.90470000      0.08309000     -0.00576767      0.00097601       8
H              18.14910000     36.45020000     14.76670000     -0.08882230      0.02882030     -0.01063740       1
H              19.72710000     34.33670000     15.20260000      0.00924246     -0.02751490      0.00366630       1
O             -17.62510000    -12.50080000      6.92789000      0.00679976     -0.03567260     -0.00376915       8
H             -16.91950000    -13.86020000      5.76853000     -0.01976460      0.02232080      0.02348440       1
H             -18.95320000    -13.28870000      8.08970000      0.01385820      0.00707078     -0.02160520       1
O             -46.51570000      3.44790000     21.57730000      0.02667200      0.06310180      0.00222756       8
H             -46.97590000      2.03799000     20.59760000     -0.00291786     -0.02304940     -0.02716080       1
H             -45.74580000      4.79932000     20.44800000     -0.01547270     -0.03279230      0.02716160       1
O             -21.76260000    -13.98720000     34.10900000     -0.03888140     -0.03705650     -0.02498640       8
H             -21.86480000    -15.93040000     34.16580000      0.01030020      0.04530010      0.01019180       1
H             -23.26120000    -13.50240000     32.98340000      0.03291010     -0.00615886      0.01263350       1
O              18.46590000     14.29610000     31.85920000     -0.03239000      0.06144330     -0.05943970       8
H              18.60780000     12.56040000     32.11570000      0.00431564     -0.04426530      0.00572487       1
H              17.38950000     14.51610000     30.18230000      0.02640730     -0.00835609      0.05485010       1
O             -21.38220000     -1.30614000     34.30020000     -0.00671875     -0.04737300     -0.00211492       8
H             -20.90890000     -3.17204000     34.23370000      0.00149193      0.04082330      0.00229832       1
H             -23.13170000     -1.29588000     33.71580000      0.00056948      0.00061928     -0.00627525       1
O              42.65060000      5.64935000     35.22950000      0.05884330     -0.01727590     -0.01551470       8
H              41.63410000      4.80507000     33.99040000     -0.01258300     -0.00709979      0.00090306       1
H              44.39610000      4.64404000     35.04160000     -0.05782690      0.03056250      0.01574010       1
O              -8.45907000    -32.86200000     -8.51289000     -0.01521350      0.04340030     -0.08500200       8
H              -7.41880000    -33.23940000     -7.24774000      0.04401390     -0.03587540      0.08039950       1
H             -10.18240000    -33.12630000     -8.12379000     -0.02335060     -0.00426570      0.00732087       1
O              53.50580000    -18.45230000    -13.21170000     -0.08389970     -0.08550260     -0.00865511       8
H              54.62160000    -17.48230000    -12.27550000      0.02470820      0.02388950      0.04110040       1
H              52.42370000    -19.84500000    -12.13230000      0.04985310      0.05708790     -0.02921140       1
O              10.46270000      1.58867000     11.75760000      0.00883695     -0.02233000      0.02016240       8
H              10.18870000     -0.07759800     12.67820000     -0.00649160      0.03575420     -0.02127930       1
H               8.92137000      2.02909000     10.82020000     -0.00351533     -0.01249550      0.00185759       1
O             -34.77890000     -2.71666000     47.31450000      0.01326180      0.01020570      0.07832540       8
H             -34.92210000     -3.04916000     45.63620000      0.00324552     -0.01448810     -0.06172470       1
H             -33.44260000     -3.73599000     48.15820000     -0.01633020      0.00346304     -0.01197990       1
O              11.24160000     -9.70726000     -8.66751000     -0.08173250      0.00793422      0.00763899       8
H               9.41500000     -9.45548000     -7.71701000      0.06871970     -0.00577846     -0.03211800       1
H              10.76710000     -9.86849000    -10.49190000      0.00915067     -0.00114220      0.02040890       1
O              23.42250000     19.60250000     12.75710000      0.00865874      0.07767930      0.11439800       8
H              21.96320000     20.15110000     13.97510000      0.04008840     -0.01427400     -0.03214890       1
H              22.62590000     18.65670000     11.64750000     -0.04585530     -0.06389920     -0.07754390       1
O               8.28203000     21.74590000    -10.34300000      0.02568970     -0.00925523     -0.05103070       8
H               7.14054000     22.05400000     -9.08992000     -0.03251890      0.01213100      0.04892860       1
H               7.22784000     21.13590000    -11.74030000      0.01271580     -0.00262130      0.00573460       1
O              23.27290000     47.28310000     31.72480000     -0.08410200     -0.05491400      0.00754969       8
H              21.27210000     47.58140000     31.90740000      0.06254400     -0.00164163      0.00781863       1
H              23.07670000     45.23830000     32.07370000      0.01238930      0.05405040     -0.01615960       1
O              -7.52487000      8.58478000      2.16253000      0.00404711     -0.05994410      0.04854910       8
H              -8.12018000      9.36678000      0.74903600     -0.01572790      0.05112130     -0.05288470       1
H              -8.66504000      7.12616000      2.10899000      0.01240170      0.00424492      0.01356840       1
O              14.02450000    -25.57260000     17.96450000      0.04909890      0.11110800      0.07080530       8
H              13.07210000    -26.29870000     16.79940000     -0.06414770     -0.03636060     -0.07288910       1
H              13.60480000    -23.61520000     18.05960000      0.01292450     -0.07670730     -0.01000760       1
O               2.30196000     16.39850000     40.55130000     -0.03891940      0.02215940     -0.02230990       8
H               0.83235000     15.35460000     41.11520000      0.01406600      0.01042500     -0.00395346       1
H               1.54406000     17.68920000     39.33390000      0.00973232     -0.02488110      0.03033470       1
O              42.32170000     43.02320000      0.65661100      0.00642192      0.00263404      0.00911445       8
H              44.04010000     43.72680000      1.14375000     -0.03655190     -0.02370980      0.00087336       1
H              41.32900000     41.90140000      1.85970000      0.03094620      0.02673940     -0.01278360       1
O              22.66340000     13.70450000    -30.83640000      0.01107080     -0.01375320     -0.01918480       8
H              23.46530000     12.17710000    -30.00620000     -0.01244630      0.01999970      0.00389203       1
H              21.74890000     12.88740000    -32.28720000      0.00295297      0.01238230      0.01508740       1
O             -14.68740000     42.03150000      4.05747000     -0.04443220     -0.07005290     -0.04232590       8
H             -16.50420000     41.40290000      4.34461000      0.03487330      0.00110233     -0.01924430       1
H             -14.59810000     43.37500000      5.07725000      0.01387280      0.07132510      0.05481150       1
O              11.70060000    -28.74150000     33.05650000     -0.03034880      0.05734050     -0.00906696       8
H              13.15150000    -29.85980000     33.05080000      0.00768315      0.02417700      0.00982755       1
H              11.84950000    -26.75430000     33.01100000      0.01562490     -0.08028260      0.00364221       1
O               3.39009000     35.01910000      0.84113200      0.06687220      0.02663870     -0.08377160       8
H               1.93522000     34.77580000      1.62996000     -0.08590900     -0.01349050      0.05366280       1
H               2.82330000     35.58690000     -0.86765600      0.01035600     -0.01276160      0.03566560       1
O              -9.29666000    -14.69740000     12.94240000     -0.02997220     -0.00994473      0.01610680       8
H             -10.91620000    -15.39810000     13.82160000      0.06635630      0.00406879     -0.03406620       1
H              -7.93079000    -15.88700000     12.37340000     -0.04277190      0.00049717      0.01638310       1
O              -4.75058000      5.64531000     15.91640000      0.01460770      0.02185160      0.04420370       8
H              -3.52870000      5.38507000     17.28900000     -0.01640860      0.00745522     -0.00586255       1
H              -4.32499000      4.32651000     14.83090000     -0.00048148     -0.02442970     -0.03114190       1
O              24.55390000    -14.58600000     -3.58256000     -0.01872580     -0.01540620      0.00809094       8
H              23.48160000    -16.18480000     -3.24182000      0.03165440      0.02705030     -0.01102790       1
H              26.29450000    -14.88740000     -4.08644000     -0.01016250     -0.02146470     -0.00288759       1
O              22.20520000      5.21335000     46.08560000     -0.01874480     -0.00946121      0.06526640       8
H              21.65220000      4.70085000     47.96010000     -0.00863584      0.02113820     -0.05385880       1
H              23.90730000      4.71258000     46.39200000      0.02630990     -0.00682565     -0.01396240       1
O              16.30690000     26.96780000     46.38050000     -0.02833130      0.00018178     -0.01440160       8
H              17.67350000     26.89980000     47.50170000      0.02351500      0.00354860      0.01665770       1
H              15.56480000     25.30120000     46.39620000      0.00414029     -0.00491786      0.00149767       1
O             -16.47220000     11.97330000     23.29930000      0.05603400     -0.05049090     -0.01737720       8
H             -15.04710000     12.22210000     22.06990000     -0.02392220      0.00417060      0.01500700       1
H             -15.78530000     10.23490000     23.98370000     -0.03193700      0.05278720     -0.00498161       1
