192
Lattice="24.34128 0.0 0.0 0.0 24.34128 0.0 0.0 0.0 24.34128" Properties=species:S:1:pos:R:3:force:R:3 TotEnergy=-1103.40038 cutoff=-1.0 nneightol=1.2 pbc="T T T"
O        2.20182000      21.89592000      10.68666000      -0.01870570       0.01437430       0.01211870
H        0.39062000      21.74699000      10.97836000       0.00676243      -0.00079286       0.00049356
H        2.75112000      20.21184000      10.36366000       0.00405314      -0.01620150      -0.00894393
O        4.22704000       0.50514000      22.36560000      -0.06928580      -0.02757800      -0.05238520
H        2.29024000       0.65654000      22.87800000       0.05740760       0.00714505      -0.02622360
H        4.01844000       0.00374000      20.39703000       0.01039370       0.02389470       0.06968570
O       13.49820000       0.46911300      18.23550000       0.01024020       0.09027220      -0.02742410
H       13.40680000       2.24107000      19.03750000      -0.00044879      -0.05273270      -0.01077600
H       13.39440000      23.61092100      19.47120000       0.00120391      -0.03207720       0.04674560
O       22.19617000      11.76578000      22.96529000       0.01011530      -0.02785270      -0.05357820
H       22.40744000      10.80248000      21.19876000       0.00182995       0.04123300       0.06691850
H       22.58096000      13.58348000      22.72877000      -0.00494165      -0.01420670      -0.01129670
O        5.27069000      10.45222000      18.64280000      -0.00771299       0.04489630       0.04493490
H        6.16718000      10.25992000      20.40500000      -0.02973830       0.00619150      -0.02814420
H        5.75239000       9.04552000      17.73830000       0.02663240      -0.04481800      -0.02425120
O       17.10762000      11.38370000       7.37570000      -0.00992752      -0.01411970       0.00223473
H       16.42566000      13.04500000       7.33523000      -0.00506769       0.02074040       0.00373135
H       16.46286000      10.69790000       5.79005000       0.00350148      -0.01451740      -0.00645877
O       17.91262000       4.61702000      14.36000000      -0.02003320      -0.04650920       0.02965870
H       19.25062000       3.96722000      13.31650000       0.00463056      -0.00224731      -0.00384377
H       17.25482000       3.02352000      15.27000000       0.01420000       0.04189680      -0.03141560
O        1.41459000      12.53546000       9.18631000       0.01336990      -0.02331210       0.02828650
H        2.28518000      11.34906000       7.86450000      -0.01612740       0.01603280       0.05100000
H        1.30187000      12.08396000      11.17860000       0.01985180      -0.00037995      -0.07006090
O        8.41892000      14.21896000      16.97520000      -0.01171220       0.01209090       0.00660909
H        7.19252000      12.97616000      17.50830000      -0.02798260       0.00689239       0.01266570
H        9.55002000      12.93596000      16.54090000       0.04472700      -0.01291440      -0.01963790
O       11.38240000      20.40366000       0.45588000      -0.06629160       0.08722230      -0.08716090
H       12.94570000      20.32526000      24.08386000       0.06779120      -0.00225573      -0.02411020
H       11.25810000      19.49166000       1.79608000      -0.00737307      -0.08233230       0.11498700
O       10.87498000       5.83830000       8.65993000      -0.04960930      -0.01713830      -0.00259995
H       11.87218000       6.80892000       9.81835000       0.00522588       0.01129000       0.00257429
H        8.83288000       5.61517000       9.41151000       0.04897200       0.01750580      -0.02559010
O       15.79301000       3.36652000       1.23714000      -0.11647600       0.07020180       0.04297030
H       14.99278000       2.99922000       2.87734000       0.01406680      -0.00125507      -0.02727780
H       17.21144000       2.55352000       0.97974000       0.09917580      -0.06879600      -0.01168030
O       10.79230000      18.23076000       8.21808000       0.01320100       0.03055410      -0.11802100
H        9.91104000      17.18936000       6.87378000       0.02098110       0.02215180       0.01154810
H       10.30310000      17.49816000       9.62148000      -0.03172350      -0.04421720       0.10592700
O        2.12522000      12.85710000      14.44512000       0.07061100      -0.03482730       0.06093740
H        0.66442000      13.19040000      15.38882000      -0.03878430       0.00997251       0.00361079
H        3.25122000      12.15530000      16.04902000      -0.03435860       0.02426350      -0.06543440
O        1.89604000       1.05201000       3.65808000      -0.04576320       0.00091818       0.02491620
H        2.83041000       1.25181000       5.21080000       0.02445910      -0.00413107       0.00850411
H        2.86644000       1.14717000       2.21634000       0.03013940       0.00407145      -0.02704610
O       13.37356000       1.57252000       9.68402000      -0.05945890      -0.01454360       0.06568040
H       14.60686000       1.21012000       8.63242000       0.09014700      -0.05583850      -0.06457000
H       13.19196000       3.19622000       9.08012000      -0.03519100       0.05637900      -0.00012329
O       16.97376000      11.64960000      23.83190000      -0.00954172      -0.02662390      -0.05147620
H       16.54896000      11.17670000      21.91880000       0.00925765       0.01651610       0.05910180
H       18.75986000      11.20220000      24.13630000      -0.00979742       0.00545229      -0.01071890
O        4.25668000      16.83954000       3.58088000       0.08266890       0.11968400       0.04446550
H        4.16218000      17.08424000       5.42388000      -0.00312157       0.00096714      -0.01003550
H        3.32198000      15.53774000       3.26388000      -0.07895570      -0.11727800      -0.03004850
O       21.12014000      21.43210000      12.51062000      -0.01414000       0.01452880      -0.01849240
H       19.38344000      22.15710000      12.10792000       0.03077550      -0.01588670       0.01868270
H       21.05094000      20.76850000      14.22002000      -0.00465061      -0.00530969      -0.00621782
O       11.06704000      13.78558000      24.10711600      -0.00812795      -0.02365770      -0.00889087
H        9.34774000      12.98968000      23.62556200       0.05487060       0.00158309       0.00965932
H       12.60074000      12.65218000      23.93466200      -0.04721090       0.01862830       0.00082225
O        3.81822000      17.02080000       8.78098000       0.00945352      -0.01286250       0.03765140
H        5.23762000      17.31860000       9.96188000      -0.01153970      -0.00485481      -0.01257400
H        3.00002000      15.40950000       9.44578000       0.00766571       0.02127310      -0.02105670
O        7.86098000       6.55912000      17.24514000       0.03652590      -0.05664430       0.03745790
H        9.68598000       6.98817000      16.89964000      -0.03804920      -0.00573391       0.00418656
H        7.87928000       5.08400000      18.58664000       0.00072163       0.05488540      -0.04655910
O       10.64040000       1.14307000       2.75347000       0.07350740      -0.00365509      -0.07830170
H        9.32025000       0.59699600       3.62220000      -0.07771170      -0.02331030       0.06436350
H       10.85980000      23.93473700       1.66562000       0.00787093       0.02791370       0.01312840
O       18.13612000      23.31636000       7.92372000      -0.06924870       0.01344770       0.09379490
H       19.05242000       0.32311200       8.60772000       0.01438880       0.01861940       0.01010300
H       18.84712000      22.97162000       6.46952000       0.05538880      -0.02652120      -0.10306000
O       20.93959000      13.38094000       9.51422000      -0.03133320       0.03278740       0.01699550
H       19.63848000      12.43584000       8.66522000      -0.00446853      -0.00536661      -0.00448042
H       22.49065000      12.72134000       9.09782000       0.04981750      -0.02043750      -0.02088380
O        6.73830000      11.18942000      11.78070000      -0.02111420       0.02460250       0.01526490
H        7.51012000      11.98032000      10.31180000       0.00475236      -0.01502730      -0.01096550
H        5.47074000      12.46452000      12.28650000       0.01593230      -0.02248380       0.00116810
O        9.94468000      18.79660000      19.25390000      -0.02491130      -0.09215590       0.03177570
H        9.27918000      16.88830000      18.62840000       0.02465350       0.06981250       0.01682230
H        9.88098000      18.50900000      21.16270000       0.00609901       0.01539410      -0.04424340
O        2.74632000      12.34312000       2.03024000      -0.04013460      -0.03523740       0.00312965
H        2.50502000      10.85482000       3.21934000       0.01727640       0.02809440      -0.01766730
H        1.12802000      12.28922000       1.07914000       0.02100510       0.00139986       0.00611643
O        7.09652000       5.22962000      23.36430000      -0.02121040      -0.07676850      -0.00463622
H        8.66174000       4.44252000      22.95570000       0.03761410       0.02137700      -0.00190889
H        6.39408000       3.38562000      23.34470000      -0.01454660       0.05496160       0.00579727
O        4.22083000      24.24356000      16.06910000       0.03875720       0.01710960       0.03636660
H        3.08574000      23.41006000      15.05870000      -0.02868250      -0.02911950      -0.03035450
H        5.73573000      23.20706000      16.17160000      -0.00239374       0.00692548      -0.00554271
O        3.08766000      19.23720000      23.24570000      -0.00319065       0.02376410      -0.01447190
H        3.31429000      19.01210000       0.69252700       0.00702563      -0.00111515       0.00662567
H        3.53047000      21.00970000      22.82902000      -0.00253892      -0.02460650       0.01066370
O       22.25799000       3.25195000      11.05270000       0.03095780      -0.09300310       0.05794300
H       22.61472000       3.85288000       9.46438000       0.01615290       0.02518290      -0.05480930
H       23.31885000       1.52045000      11.12010000      -0.04603550       0.06671540      -0.00274146
O       12.62526000       4.82874000      21.99546000      -0.04301590      -0.03590430      -0.02207060
H       13.33366000       6.35624000      21.70706000       0.01310590       0.07730400      -0.04029530
H       13.72646000       4.56824000      23.32776000       0.02561230      -0.04327310       0.05128930
O       10.17620000       7.81014000       3.98188000       0.00648450      -0.06244220       0.03571530
H       10.47600000       6.68054000       5.92038000      -0.00776138       0.03214410      -0.04312630
H       10.00120000       6.49034000       2.63928000      -0.00004351       0.02049390       0.02702880
O        9.34736000      15.67502000       4.16677000       0.00850884      -0.01693670      -0.02136200
H       10.30086000      15.00822000       2.57774000      -0.02330340       0.00908933       0.02744930
H        7.50576000      15.60102000       3.88424000       0.01193410       0.00602554      -0.00899798
O       14.67800000       9.90262000      19.33750000       0.09051000      -0.01480730      -0.02426640
H       16.51670000       9.69252000      18.17620000      -0.06343790       0.00192666       0.03898990
H       13.46930000      10.46952000      18.16350000      -0.01354620       0.00791833      -0.01548530
O        9.12648000      11.43548000       7.56106000       0.01161800       0.06687220      -0.04073490
H        9.47688000      13.22728000       6.54950000      -0.01406990      -0.07220050       0.02563870
H        8.67228000      10.21518000       6.24160000       0.01038300       0.01507770       0.00730112
O        0.72436000       3.53289000      16.62270000      -0.11969300       0.03176890      -0.03074750
H        2.23836000       3.03657000      16.13870000       0.10964000      -0.03665520      -0.01342290
H       24.26594000       3.56336000      14.86680000       0.00443558       0.00728246       0.04680600
O        3.58078000       8.84078000       5.75812000      -0.08204420      -0.03385850       0.00008398
H        5.16498000       8.16568000       6.20792000       0.01413140      -0.01110730       0.00836507
H        2.14858000       7.35438000       6.02682000       0.05060270       0.04602100      -0.00782404
O       17.92320000      16.26650000       0.69342000      -0.01899610       0.00588315       0.02670110
H       17.63310000      17.16030000       2.36672000       0.00010282      -0.03781920      -0.03317440
H       17.11050000      14.44300000       0.56752000       0.02034870       0.04335350       0.00300553
O        4.28718000       1.39225000       8.13572000       0.03880140      -0.04577210       0.02447980
H        6.16998000       0.63701500       8.22762000      -0.04709790       0.01641220      -0.01405510
H        3.41828000      24.23872500       9.06442000       0.01093920       0.03209400      -0.01443140
O       14.69322000       8.21375000      11.44712000       0.06714360       0.03436060      -0.07476210
H       15.99962000       6.94798000      11.49902000      -0.01019000      -0.01587760       0.02457830
H       15.82862000       9.20866000       9.97612000      -0.05682790      -0.01148700       0.04685590
O       20.32442000      17.81786000      16.56244000       0.03795610       0.20900200       0.17464800
H       21.12849000      17.40596000      18.24717000      -0.01238730       0.00315011      -0.03979210
H       20.12516000      16.54516000      15.69424000      -0.02105310      -0.20351800      -0.12667800
O        6.25844000       6.11958000       9.34648000      -0.01508680      -0.00514016       0.02875120
H        5.78684000       7.15798000      10.88288000       0.00449515      -0.02374060      -0.03401430
H        5.30024000       4.48418000       9.11558000       0.00361862       0.02015180       0.01301450
O        9.68838000      22.32958000      15.85600000       0.00533378      -0.02993960       0.02223490
H       10.98470000      23.39569100      15.31220000       0.01320820       0.02834830      -0.01454260
H       10.63430000      21.52456000      17.28680000      -0.03662760       0.00299299      -0.01890200
O       15.90786000      20.58249000      22.66392000       0.02526170      -0.10448300       0.01441170
H       15.60176000      19.28435000      21.26132000      -0.00673948       0.05325940      -0.00221633
H       16.67426000      18.85408000      23.54532000      -0.01071880       0.05576930       0.00110710
O       10.97210000       9.88958000      14.71510000      -0.07451130       0.01900860       0.00268008
H        9.51727000      10.14648000      13.44868000       0.01876360       0.00068283       0.03553310
H       12.21070000       9.46378000      13.58688000       0.05594670      -0.01501000      -0.03056090
O       21.26930000      18.54490000       7.73973000       0.01526270       0.06143370       0.08486260
H       21.49690000      19.57080000       9.63961000      -0.02116430      -0.02559670      -0.07637860
H       21.78820000      17.02140000       8.51431000      -0.00104609      -0.03423570      -0.00932431
O       15.30640000      19.34910000      18.12057000      -0.11049300       0.09400390       0.05771090
H       13.71450000      18.83550000      17.59742000      -0.01897910      -0.02809860      -0.01593050
H       16.74070000      18.71230000      17.74011000       0.13013200      -0.07598820      -0.05860400
O       22.06570000      22.30072000       4.14232000       0.01850370       0.01603510       0.00202284
H       22.49500000      20.72262000       5.04592000      -0.00098316       0.02005190      -0.00465088
H       23.48210000      23.59462000       4.20592000      -0.02171580      -0.03844460      -0.00155025
O       15.21735000       8.62736000       3.56362000      -0.02201120      -0.01875970       0.06271120
H       15.26503000       9.08532000       1.85908000      -0.00806265       0.00940914      -0.02533940
H       13.42778000       8.22308000       4.25751000       0.03275340       0.01494340      -0.03844320
O       16.67130000      23.55266000      13.63590000      -0.07427140      -0.01138130      -0.00151707
H       14.92870000      23.54756000      12.63830000       0.06447450       0.00576692       0.03370200
H       16.17880000      23.01006000      15.38760000       0.00713836       0.00726134      -0.03113410
O       21.03072000      13.41640000      14.40032000      -0.02053000      -0.04411180       0.00108232
H       19.92993000      11.74550000      14.86602000       0.04574900       0.05925600      -0.03115900
H       21.44377000      13.66600000      12.49502000      -0.03324630      -0.02381780       0.04029350
O       23.01112000      16.90612000      21.81601000      -0.02120620       0.06276350       0.06882020
H        0.19134000      18.06482000      22.55286000      -0.03563030      -0.03652760      -0.02762400
H       21.46532000      17.53602000      22.98442000       0.05402410      -0.02791940      -0.04324730
O        0.10172000       8.42197000      18.70576000       0.03928020      -0.00917896      -0.01007520
H        1.92342000       8.82353000      18.25366000      -0.04033010       0.00729682       0.01551570
H        0.27412000       6.58779000      18.72176000      -0.00917376       0.00789960       0.00002306
O        8.81808000      23.38612000       7.52754000      -0.08670390       0.01661840      -0.04284570
H       10.12778000      24.09442000       8.30829000       0.08032730       0.04023460       0.04281980
H        8.99008000      21.66482000       7.65085000       0.00913705      -0.05533470       0.00579151
O        7.87999000      17.94076000      12.95972000       0.00043543      -0.02746170       0.00499818
H        8.19141000      16.75736000      14.37672000      -0.00766852       0.01328640      -0.01706290
H        8.52704000      19.53466000      13.49112000       0.00445194       0.01163840       0.00897857
O       23.98916300       5.01332000       6.22673000       0.02880420      -0.03943880      -0.03255220
H        0.33656300       3.63872000       5.01082000      -0.00144822       0.02415000       0.03586640
H       22.71322000       5.44492000       5.02120000      -0.02534560       0.02547740      -0.00490081
O       15.87724000      16.90041000       6.15786000       0.08478720       0.00528222      -0.01836270
H       14.19168000      17.09508000       6.57457000      -0.03375690       0.02876580       0.02016930
H       17.18204000      18.27421000       6.55650000      -0.04711920      -0.03380270       0.00460348
O       19.28997000       8.72284000      16.68620000       0.04141150       0.00280599       0.03074490
H       21.12573000       8.63379000      17.49170000      -0.05563250      -0.00088742      -0.02817850
H       18.75264000       7.01665000      16.09120000       0.01077190       0.01099930      -0.00103291
O       20.51820000       6.49688000       2.50278000       0.01153380       0.02322600       0.04337120
H       21.13200000       5.78878000       1.02114000      -0.00269849      -0.01901300      -0.03063090
H       18.83560000       6.06728000       2.98584000      -0.00938913      -0.00442037      -0.01488900
O       23.62920000       2.64254000      21.92542000       0.03827020       0.01753840      -0.06412900
H       22.24240000       1.65731000      22.31642000      -0.04321620      -0.02573630       0.01436910
H       23.70970000       2.55729000      19.97182000       0.00206892       0.00419323       0.05279640
O       19.25960000       0.12852000      24.22102000       0.02191110       0.02841010      -0.00267025
H       20.24230000      23.48210000       1.01634000       0.00206923      -0.01351700       0.01134100
H       17.99340000      23.46770000      23.47102000      -0.01477600      -0.02457610      -0.00939509
O        6.61198000      10.50620000      23.35040000       0.04707460       0.01812250      -0.04892160
H        7.03828000       8.95650000      24.06160000       0.00172399      -0.03274350       0.01795230
H        5.35648000      11.32870000      24.23170000      -0.04505650       0.01792820       0.03402410
