192
Lattice="23.99741 0.0 0.0 0.0 23.99741 0.0 0.0 0.0 23.99741" Properties=species:S:1:pos:R:3:force:R:3 TotEnergy=-1103.34092 cutoff=-1.0 nneightol=1.2 pbc="T T T"
O       22.68720000      19.73110000      19.41122000      -0.03815080       0.02487150       0.01805590
H       20.87010000      20.20268000      18.95612000       0.04707720      -0.01738980      -0.00706247
H       23.02350000      17.99253000      19.02972000       0.00114052      -0.00958032      -0.00691600
O       22.32819000      19.87419000       0.67686700      -0.01138440      -0.05045820       0.04402480
H       22.40929000      21.49339000       1.28577000       0.01477670       0.05372560       0.01925490
H       22.46249000      19.82179000      22.95022000       0.01892820       0.00748707      -0.07013140
O       11.79870000       5.85396000      13.20370000       0.00757826      -0.01490090       0.02412320
H       12.80800000       5.40210000      14.67010000       0.00262085       0.01878540       0.00662604
H       11.10030000       4.16529000      13.12770000      -0.00896189      -0.01233570      -0.02885820
O       18.95133000      13.37181000      22.08280000      -0.01501410       0.03811380       0.10350900
H       19.45446000      13.53321000      20.50035000       0.02970600      -0.00993715      -0.10727700
H       19.18671000      15.18156000      22.57147000      -0.01220610      -0.02351620       0.00720257
O        6.14297000       7.06869000      18.83080000       0.06705850      -0.00189283       0.07766480
H        8.03378000       7.36889000      19.73270000      -0.07073420      -0.00179762      -0.04834530
H        6.09154000       7.77189000      17.20070000       0.01843940       0.00356600      -0.03735980
O       18.67174000       9.82738000       5.67189000      -0.02112930      -0.00440616      -0.00976963
H       18.54833000       8.71533000       7.18684000      -0.00195665       0.00962059      -0.03143140
H       17.30298000       9.40287000       4.25316000       0.03315060      -0.00600831       0.05307360
O       19.92559000       0.65369000      12.88630000      -0.05921720      -0.03644830      -0.05135510
H       21.72079000       0.81639000      12.95610000       0.01889580      -0.00781985      -0.01171040
H       19.25699000      23.76480000      10.97530000       0.03364240       0.02805580       0.06405960
O       22.88160000      19.07262000       7.66130000       0.14600300      -0.11216400       0.03491510
H       23.37460300      17.75672000       6.36913000      -0.01128190       0.02859510       0.00316968
H       21.61748000      20.02862000       7.37810000      -0.13256000       0.08937250      -0.04029510
O        6.53979000      15.79312000      17.99150000       0.25042900       0.06325060       0.19216200
H        5.34309000      15.25422000      17.25270000      -0.25040500      -0.09478850      -0.15049500
H        6.50979000      14.78392000      19.75460000       0.01044050       0.02747750      -0.04425880
O        9.72030000      22.37922000      23.49752000       0.06269360      -0.00988606       0.05158840
H       11.38830000      22.83882000      22.53562000      -0.04370170      -0.02249620       0.03602590
H       10.26390000      21.52832000       1.48371000      -0.02380770       0.02560860      -0.08459690
O       14.49443000       2.71745000       8.02598000       0.07771260       0.01113140      -0.14721000
H       13.58821000       2.91448000       6.24765000       0.04068660      -0.00275159       0.04720640
H       13.22571000       2.63320000       9.04508000      -0.11064000      -0.01017990       0.09911310
O       12.88711000       3.81659000       2.96328000      -0.04505310       0.02179940       0.03095630
H       10.95791000       4.18619000       3.45018000       0.04969880      -0.02213820      -0.03150250
H       13.24071000       2.98279000       1.39118000      -0.01499580      -0.00873451      -0.00482445
O       15.93690000      17.73852000      10.99611000      -0.04748000      -0.00184733      -0.10905400
H       15.99280000      16.03412000      10.02311000      -0.00048008       0.02494350       0.00158216
H       16.64070000      17.53032000      12.47931000       0.04393790      -0.01330400       0.10675600
O        3.42799000      14.72000000      12.20069000       0.01784800       0.03718160       0.01368740
H        2.10869000      15.76650000      11.58159000      -0.01041900       0.01039080       0.00199448
H        2.98629000      13.14660000      11.61879000      -0.01094560      -0.04873140      -0.01373990
O        0.11379400       0.77833500       3.26088000      -0.00384550       0.02356710       0.01996500
H        0.00579800       1.58146000       4.96332000      -0.00754297      -0.01876620      -0.01716470
H        1.71439000       1.37646000       2.62552000       0.00037774      -0.01089300      -0.00386905
O       18.41922000      21.56870000       8.83359000      -0.04851590       0.00660328      -0.00322634
H       17.04962000      22.30150000       7.73849000       0.03045580      -0.00797245       0.02065900
H       17.41962000      20.21050000       9.79649000       0.01819530       0.01188760      -0.01518840
O       14.20742000      12.04540000      23.24650000      -0.02412430      -0.01435390      -0.02785730
H       13.09352000      11.62630000      21.61550000       0.05289440       0.01945350       0.04961140
H       15.99962000      12.67170000      23.03140000      -0.02730940      -0.01651630      -0.02889730
O        5.79161000      15.28568000       3.77131000      -0.00224457       0.00144203      -0.06280650
H        5.75841000      14.12738000       5.10501000       0.00759144      -0.02634090       0.03877760
H        6.11481000      14.13938000       2.27561000      -0.00126136       0.03301070       0.03388290
O       19.20658000      20.34090000      15.80419000       0.06456210       0.06524080      -0.05192920
H       19.33448000      22.07480000      14.61559000      -0.00327470      -0.04449470       0.03899060
H       17.54958000      20.03990000      16.12479000      -0.06655080      -0.01040920       0.00666294
O        7.62068000       3.93901000       3.95575000       0.06578190       0.09761170      -0.10646600
H        7.22818000       3.21471000       5.35468000      -0.03817520      -0.07317740       0.12836600
H        6.98928000       3.03101000       2.56856000      -0.02066180      -0.02140380      -0.02025520
O        6.70089000      18.43240000      10.54571000      -0.15615900       0.00937102       0.08800480
H        8.08029000      18.64770000       9.75701000       0.15043600       0.00691946      -0.08382310
H        6.15839000      16.75440000      10.85251000       0.00545911      -0.01785740      -0.00034081
O        6.84991000       7.81351000      13.66288000       0.08714190       0.02002070      -0.02873370
H        7.54601000       9.77868000      13.47498000      -0.02819760      -0.07265300       0.01590660
H        8.71811000       6.80594000      13.37928000      -0.06936380       0.04437460       0.01648290
O        4.83549000       0.95359100       0.96828600      -0.02534550       0.02893950       0.00844712
H        4.34064000       1.59361000      23.34118200      -0.01412790       0.01611840      -0.00935301
H        6.14889000      23.93506000       0.47806100       0.04660780      -0.04274490      -0.00723974
O       19.80279000       4.83911000       0.15139000      -0.01770650       0.01360530       0.01224920
H       18.81449000       6.03170000       1.23239000       0.01375050      -0.01183350      -0.01796850
H       21.09339000       4.14092000       1.19669000       0.00615840      -0.00695802       0.00879508
O       23.65660100      11.01648000       4.89089000       0.01172480       0.00734663      -0.01010220
H       21.98890000      10.55388000       4.31239000      -0.01189380      -0.00039099       0.01141530
H       23.71936900      12.85558000       4.98569000      -0.00349219      -0.00172251      -0.00527393
O       10.10840000      13.79669000      10.48170000       0.03316200      -0.00916251       0.02100950
H        9.26675000      12.69609000       9.26413000       0.00388858       0.00084083       0.00370056
H       11.76710000      13.04229000      11.02770000      -0.03026130       0.00970597      -0.02811210
O        7.21091000      20.71120000      19.18380000       0.02348610      -0.02146590       0.01680070
H        7.30411000      18.81660000      18.79450000      -0.01030450       0.03508110       0.01577930
H        8.18251000      21.14710000      20.77330000      -0.01513080      -0.01590680      -0.02178340
O        6.71589000       9.04439000       3.10738000      -0.05538820       0.08952400      -0.02115630
H        7.19429000       7.44449000       3.33378000       0.02258510      -0.09240280       0.01008130
H        4.96899000       9.04799000       2.35128000       0.03516100       0.00199394       0.01058480
O       10.99590000       9.35429000      19.45260000      -0.13379500       0.09490980       0.04097860
H       10.38120000      10.03609000      17.88800000       0.00639623       0.00537286      -0.00841317
H       12.31030000       8.41769000      19.22680000       0.12024900      -0.09237700      -0.02659000
O        2.72531000      23.05572000      18.29710000      -0.02624290       0.01087670      -0.00938177
H        1.53416000      21.73422000      18.74530000       0.00152308       0.00304657       0.00084168
H        4.36387000      22.48772000      18.73300000       0.02095790      -0.01824400       0.00246692
O        0.70117900      16.27060000       3.82837000       0.01988370      -0.00114500      -0.03552910
H        2.71352000      16.08270000       3.71177000      -0.05290530       0.00737401      -0.00748100
H       23.87873600      16.87140000       2.14572000       0.03374780      -0.01050290       0.05122800
O        1.04377000       0.56134700      13.36250000      -0.08433540       0.12179100      -0.09168580
H        1.82522000      23.73042500      12.08440000       0.02718390      -0.03377760      -0.06852530
H        1.55657000      23.74779000      14.63000000       0.05685940      -0.08606290       0.16748200
O       14.30952000       5.92298000      18.73512000       0.06231470       0.00882411      -0.01526650
H       15.90022000       6.50978000      17.67102000      -0.04740200      -0.03013100       0.04390280
H       14.90702000       4.97948000      20.33982000      -0.00749814       0.01275100      -0.04091260
O        6.34066000       1.91268000       8.61231000       0.00330790      -0.08986530      -0.02514990
H        5.56726000       3.34018000       9.13331000      -0.04085990       0.05636530       0.02438290
H        5.01652000       0.44388000       8.58061000       0.02191520       0.02948670       0.00497814
O       13.86942000      15.52059000       3.13984000       0.00953023       0.02548980       0.03468280
H       14.33572000      14.29499000       1.83876000      -0.03640950       0.01763670      -0.00529988
H       12.46542000      16.82029000       3.19530000       0.01860630      -0.03667660      -0.02458540
O       21.45570000      11.52069000      11.27540000       0.01169170      -0.05824160      -0.01288950
H       21.45690000      13.23839000      11.40700000      -0.00316677       0.06418890       0.00576462
H       23.14380000      11.06449000      10.46430000      -0.02704730      -0.00156813       0.02093300
O        6.53491000      11.67851000       7.50426000      -0.02666180      -0.03921060      -0.00886703
H        6.75671000      10.22121000       6.12974000      -0.01555490       0.04341080       0.03563490
H        4.93251000      11.36921000       8.55906000       0.03835090      -0.00419519      -0.03398000
O        3.05382000       3.57555000      20.67420000       0.04664070       0.13026600       0.06327720
H        3.02192000       2.26252000      19.68480000      -0.01103600      -0.11053900      -0.08020520
H        4.49212000       4.70978000      19.93160000      -0.03683020      -0.02196350       0.01829950
O        1.61891000      10.01041000       9.27049000       0.00643217      -0.07155050      -0.01559310
H        1.93451000       8.00791000       9.57929000      -0.01567470       0.06925160       0.00205335
H        0.60561000      10.06871000       7.62749000       0.02046700       0.00219166       0.01353240
O       15.51360000      14.19960000       7.91249000      -0.05814710       0.06402050      -0.00845995
H       16.63680000      12.96330000       7.64619000       0.05812530      -0.06412060      -0.02030760
H       15.00090000      14.85920000       6.18979000       0.00241549      -0.01130890       0.01833140
O        2.99081000      21.92065000       9.38739000      -0.02747080      -0.00243887      -0.02813960
H        4.13841000      20.51681000       9.81799000      -0.00953811       0.00228566      -0.00806817
H        1.44401000      21.35765000       8.27319000       0.04697870       0.00342217       0.03486480
O       18.90179000       5.31043000       9.39419000      -0.04191160      -0.02365190       0.01307270
H       17.14959000       4.34311000       9.04839000       0.05182200       0.02711690       0.00981353
H       19.23709000       5.20147000      11.23429000      -0.01010540       0.00129171      -0.02956960
O       15.45376000      13.19252000      16.40143000      -0.17111300       0.04650150      -0.05969150
H       16.91360000      12.64672000      16.74931000       0.16743500      -0.05461340       0.04234420
H       14.94118000      12.16232000      14.92743000       0.00172657       0.00978219       0.01242370
O        2.27578000       5.24861000      11.63841000       0.05363700       0.04742200      -0.02989230
H        3.95738000       5.76211000      12.41071000      -0.03714250      -0.01216350      -0.00144616
H        1.30068000       4.07611000      12.51951000      -0.00457391      -0.02555250       0.03086510
O       10.37980000       1.24371000      11.30190000      -0.04804240       0.10596300      -0.08595360
H       10.50570000      23.94379300      12.30430000       0.00469049      -0.10243300       0.08725510
H        8.47477000       1.36526000      10.74920000       0.05087650      -0.00458768       0.00454416
O       14.50702000      21.44627000      20.86639000      -0.06962920       0.03733630      -0.11216900
H       14.39082000      20.59689000      19.06569000       0.00160179       0.02089500       0.06050330
H       15.72052000      20.58043000      21.63669000       0.06901150      -0.05654940       0.05435050
O        9.21894000      11.89531000      15.15079000      -0.03984090       0.01541710       0.08682360
H        8.47748000      13.51361000      15.88143000       0.00224122      -0.03413140       0.01130000
H        9.66883000      12.71001000      13.73831000       0.03500210       0.02968020      -0.09323250
O       21.74510000      16.83270000      12.36430000       0.02079770       0.02194240      -0.06370260
H       20.94680000      18.30290000      12.97250000      -0.01692500       0.01143080       0.03769820
H       22.10430000      17.74830000      10.65270000       0.00219660      -0.03586490       0.02581200
O        9.46352000      21.29660000      14.65114000      -0.00173468      -0.03501700      -0.05627190
H        8.94643000      21.08850000      16.36385000      -0.01722870      -0.00048568       0.01513970
H        8.60114000      19.97140000      13.50411000       0.01746330       0.03626960       0.03777570
O       23.02860000       1.92978000       8.36339000       0.05077530       0.07955910       0.01840170
H        0.69909000       2.87608000       9.02039000      -0.05621770      -0.04070320      -0.02262980
H       21.90870000       3.49238000       8.40909000       0.00470517      -0.03557850      -0.00075625
O       15.67366000       8.02430000       2.48032000      -0.06674080       0.00158465      -0.06539650
H       14.59463000       9.26491000       1.38679000       0.03872340      -0.01387900       0.02225230
H       14.55263000       6.48907000       2.12241000       0.02342130       0.01630810       0.03023390
O       14.18210000      18.34382000      16.54960000       0.11195600      -0.05971090       0.02335090
H       12.64540000      18.69192000      16.12100000      -0.13240100       0.04875750      -0.03983180
H       14.15990000      16.49712000      16.18570000       0.02111390       0.01551850       0.01695850
O        1.23634000      15.40630000      17.95209000      -0.01032130      -0.05455700       0.00054704
H        1.27128000      13.46310000      18.46739000      -0.00202256       0.05995890      -0.02165300
H        0.59086200      15.55340000      16.21439000       0.00816200      -0.01078280       0.01865450
O       17.76649000      18.69419000      23.91660500       0.01286670      -0.00685652       0.03073760
H       19.55539000      19.44089000       0.23166700      -0.03846940      -0.02110420       0.00728340
H       17.11949000      18.01239000       1.57184000       0.01087650       0.01542560      -0.03437600
O       20.78620000      10.96450000      16.54642000      -0.05395430      -0.06520880      -0.06150720
H       19.63060000       9.30560000      16.28752000       0.04690510       0.05497150       0.02461750
H       20.93770000      11.11130000      14.60402000       0.01180280       0.00985435       0.03643740
O        9.78521000      19.19419000       3.92110000      -0.03316720      -0.01190830       0.02026170
H        8.03211000      18.35549000       4.04651000       0.04697580       0.01568620      -0.00692505
H       10.32101000      19.47759000       5.71176000      -0.00517697      -0.00283170      -0.01722580
O       11.37720000      19.75522000       8.90439000       0.05369400      -0.04157870       0.01559800
H       12.97110000      18.70272000       9.64309000      -0.05391380       0.03703270      -0.01868820
H       11.70880000      21.47182000       9.32799000       0.00215061       0.00966085       0.00335334
O        2.78596000      11.47109000       0.38174500      -0.05460240      -0.03855470      -0.01375850
H        1.65154000      11.40109000       1.90943000       0.01733330       0.00314513      -0.02475900
H        1.76307000      10.49609000      22.92585000       0.03967970       0.03618500       0.03863330
O       14.63693000      10.14171000      12.05830000       0.07401710       0.12693700      -0.04601750
H       13.94741000       8.71711000      12.65990000      -0.00840013      -0.08252500       0.01299350
H       16.44085000      10.52231000      11.31400000      -0.06396820      -0.04259840       0.03127270
O       19.18082000       5.34170000      15.68760000      -0.14357900       0.03003310      -0.14919300
H       20.23024000       5.16348000      16.84140000       0.14936300      -0.00944460       0.16683700
H       19.29919000       3.74485000      14.88830000      -0.01060860      -0.02028240      -0.01851480
O        2.07659000      10.10361000      19.43312000      -0.03456880       0.02221360      -0.00154149
H        0.69469000       9.36581000      18.45924000       0.01003060      -0.00005125       0.00818129
H        3.64299000       9.26881000      19.15533000       0.01012450      -0.01420140      -0.00100331
O       22.53410000       5.89803000      19.54999000      -0.17908400       0.00943763       0.05225760
H       21.56020000       5.19595000      21.27869000       0.04099770       0.03515990      -0.06857950
H        0.10669000       5.46377000      19.69869000       0.13154500      -0.04498580       0.01932720
O       15.47400000       2.51909000      22.25649000      -0.01248530      -0.01220530      -0.01317190
H       17.08530000       2.88669000      22.90569000       0.02817180       0.01393250       0.01794820
H       15.85090000       1.07559000      21.17709000      -0.01740000      -0.00243718       0.00360124
O        7.35571000      13.31400000      22.39920000       0.01229360      -0.04933690       0.02051210
H        8.79141000      11.89240000      22.32870000      -0.06322010       0.04924900       0.00796556
H        5.79101000      12.78290000      23.47210000       0.03991270      -0.00583104      -0.03883740
