192
Lattice="24.3154 0.0 0.0 0.0 24.3154 0.0 0.0 0.0 24.3154" Properties=species:S:1:pos:R:3:force:R:3 TotEnergy=-1103.37504 cutoff=-1.0 nneightol=1.2 pbc="T T T"
O       22.51100000       2.24882000      18.40800000      -0.04776770       0.04364270      -0.10621900
H       23.30920000       2.85209000      19.72450000       0.05542800       0.04780770       0.09849680
H       22.44720000       0.59489400      18.67900000      -0.01482080      -0.09421890       0.01519470
O        2.42570000      21.19590000       3.93595000       0.09377230      -0.02671220      -0.03627130
H        4.34500000      20.76640000       4.55400000      -0.06744560       0.01918620      -0.01337190
H        2.80850000      20.87940000       1.93170000      -0.03209800       0.01944860       0.05972520
O       13.12760000      23.78023300      14.31450000      -0.04651790       0.00081737       0.01248060
H       14.67470000      23.65797900      13.53610000       0.04600810      -0.00661008      -0.01891550
H       12.35470000      22.10935000      14.23310000      -0.00060906       0.00458643       0.00750585
O       18.79864000      14.78353000       0.54724500       0.01547710       0.00131183      -0.07325150
H       19.49303000      14.88557000      22.86221000      -0.02181380       0.00490080       0.07323740
H       18.35596000      16.41372000       1.27413000      -0.00145186      -0.00340073      -0.01987940
O        8.94409000       5.73400000      20.70230000      -0.01504310      -0.00022881       0.03674650
H        9.23745000       6.46750000      22.39590000       0.00120883       0.00007405      -0.03000750
H       10.37950000       5.87680000      19.61240000       0.01168890       0.00826096      -0.00690660
O       21.02565000      12.18170000      12.29350000       0.02554880       0.03541670       0.00169559
H       20.61328000      11.37510000      10.68600000       0.00711917      -0.00312267       0.00300733
H       22.41994000      13.51720000      12.01660000      -0.02462640      -0.03316670      -0.00284030
O       21.79500000       2.13650000      11.09980000       0.06413340       0.02473650       0.04863060
H       23.68530000       2.51150000      11.46020000      -0.05884660      -0.01256500      -0.01235120
H       21.77210000       1.55050000       9.44732000       0.00098350      -0.01709960      -0.03737180
O       22.51978000      20.06780000      11.08600000       0.02439280      -0.01871240      -0.03640890
H       23.47560300      18.53420000      10.60070000      -0.00628218       0.00168832       0.02116520
H       22.83602000      20.89970000       9.39994000      -0.01672120       0.01042620       0.02373040
O        4.31150000      13.71940000      19.41280000       0.00142019      -0.02169370      -0.00670170
H        5.85320000      12.93280000      20.28080000      -0.02284470       0.04557230      -0.01702780
H        4.42170000      15.52970000      19.09470000       0.01482740      -0.01355830       0.01155830
O        8.95094000      22.34660000      20.83690000       0.06397640       0.01867610      -0.03980600
H       10.98470000      22.37240000      20.67210000      -0.04829490       0.02139720      -0.00787746
H        9.18970000      21.10480000      22.04810000      -0.02457110      -0.04231530       0.04361880
O       12.49160000       2.45016000       5.54703000      -0.01822420       0.07704970      -0.00238800
H       10.40840000       2.24727000       5.18579000       0.05550890       0.00584164      -0.01152130
H       13.01510000       4.43164000       5.30312000      -0.02353160      -0.08695860       0.00749390
O       13.04660000       7.13760000       0.76590000      -0.01962650       0.00490434       0.04943620
H       13.35340000       5.99260000      23.73530000       0.01969430      -0.00096662      -0.01645760
H       13.66420000       8.86890000       0.74520000       0.00233184       0.00078243      -0.03098000
O       15.05540000      18.82080000       9.21420000       0.12910200      -0.03792200      -0.01317100
H       15.65390000      17.11810000       8.40670000      -0.01287440       0.03503870       0.01506810
H       13.39870000      18.83380000       9.13060000      -0.11949500      -0.00359220      -0.00350103
O        1.02930000      15.49830000      10.51950000      -0.01075970      -0.00824245      -0.02474040
H        1.03050000      14.67570000       8.78730000       0.00982971       0.00594193       0.03876920
H        2.44860000      14.94540000      11.57300000      -0.00679204      -0.00752508      -0.01225160
O        0.61486900       2.59788000      23.69337600      -0.06532070       0.02356790      -0.03821990
H        1.89019000       3.61116000      24.24261800       0.05268690       0.04591090       0.01867450
H        1.07172000       1.06830000      24.30482600       0.01423560      -0.06816820       0.01966510
O       22.52490000      22.69980000       6.68020000      -0.04525260      -0.00101739      -0.01373650
H       23.99520000      22.72300000       5.55070000      -0.01710790      -0.01154880      -0.00417128
H       20.80290000      22.40570000       5.81300000       0.05759200       0.00919193       0.01660230
O       14.20010000      11.88340000      24.13710000       0.08141470       0.04108370       0.03934760
H       13.84880000      12.24230000      22.45560000      -0.02053320       0.00025473      -0.04283740
H       15.94700000      13.01290000       0.00970000      -0.05063450      -0.03759220       0.00457886
O        6.01240000      13.30740000       4.85040000      -0.00590902       0.08103160       0.11683000
H        6.98500000      13.24840000       6.72150000      -0.05014570       0.01439360      -0.05091690
H        6.90840000      12.02900000       4.30220000       0.05498540      -0.09652510      -0.06136060
O       17.71310000      19.98880000      13.09930000      -0.08477610       0.00736058       0.05215130
H       19.26710000      19.68690000      12.59580000       0.12738600       0.00362704      -0.02514680
H       16.99130000      19.08880000      11.72430000      -0.04018260       0.00283326      -0.01720710
O        8.13500000       1.36230000       4.21341000       0.05188720      -0.02646070      -0.06430000
H        6.97290000       2.05330000       5.23278000      -0.06885080       0.03390770       0.04040510
H        7.73900000       1.59960000       2.27911000       0.00098172      -0.00445340       0.01811740
O        9.74940000      18.37990000       9.47270000       0.02407850       0.04521860       0.01874180
H        9.03710000      16.79910000       9.57680000      -0.02319870      -0.05247570      -0.00397887
H        9.97070000      18.74940000      11.29440000      -0.00601981       0.00958447      -0.01255330
O       13.21660000       6.79470000      12.19860000       0.08829780      -0.00329307      -0.02262360
H       12.26100000       5.40166000      11.49420000       0.00489933      -0.00399567       0.00042363
H       15.25875000       6.51421000      11.71760000      -0.09000850      -0.00025204       0.02751020
O        7.21018000       1.57000000      23.61096700      -0.00472089      -0.04378140      -0.01727570
H        7.45148000      24.22318700      22.22748000       0.01244130       0.06132270       0.04400940
H        7.54926000       3.13664000      22.75713000       0.00104097      -0.00979636      -0.00698784
O       20.26800000       5.29667000      23.87730000       0.12379300      -0.05337330      -0.13184600
H       19.58320000       5.57957000       0.98710000      -0.07195570       0.03090450       0.14831600
H       22.04130000       4.47247000      24.29860000      -0.05456290       0.01846610      -0.01760500
O       20.24606000      12.36210000       4.44820000      -0.04994360      -0.00037516       0.01371330
H       20.71072000      13.34790000       3.06470000      -0.00568304       0.02142400      -0.03491960
H       21.78374000      11.77790000       4.95500000       0.05742400      -0.02473440       0.03138570
O        8.01125000      13.09330000       9.87956000      -0.05123200       0.00943951       0.07409640
H        7.56778000      12.79810000      11.88610000      -0.00467510       0.01208560      -0.07812420
H        9.63817000      12.46910000       9.79886000       0.05277830      -0.01986340      -0.00388676
O        5.58480000      19.88650000      17.73870000      -0.02848820       0.03720060       0.01413360
H        3.87280000      20.31530000      16.74540000       0.06373810       0.00400220       0.04466480
H        6.35280000      21.23830000      19.17940000      -0.03338930      -0.04747740      -0.06830350
O        8.40930000       9.05880000       1.29840000       0.03429370       0.00394407      -0.00153664
H       10.03320000       7.97520000       1.54490000      -0.04443620       0.01751900      -0.00321682
H        6.76640000       8.42420000       1.76170000       0.01017140      -0.02391430       0.00648849
O       11.97530000      11.52190000      19.23940000       0.01341470       0.05960890      -0.04995870
H       12.48250000      12.50090000      17.60760000      -0.02057770      -0.01395060       0.05069240
H       12.77210000       9.98610000      18.87070000       0.00726828      -0.04064300      -0.00073687
O        2.66756000      21.24350000      23.24550000      -0.04330490       0.00876426      -0.01816370
H        1.39805000      20.62070000      21.97660000       0.01685170       0.00663771       0.01940010
H        4.10353000      20.23500000      23.08980000       0.03177950      -0.02009820      -0.01024000
O        1.11868000      12.15740000       6.07802000       0.06295740      -0.02940020      -0.01146400
H        1.70813000      10.31800000       6.26866000      -0.02854410       0.03616560       0.00298429
H        2.87935000      12.80910000       5.48759000      -0.04001940      -0.00612731       0.00891013
O        2.16443000       3.60340000      15.52170000       0.04799290       0.02473080       0.01866720
H        0.64392500       3.02184000      16.29100000      -0.01163130       0.00413049       0.01089020
H        3.30110000       4.50929000      16.98890000      -0.03945360      -0.01572620      -0.03385290
O       13.13990000       6.61950000      17.79460000       0.00959489      -0.01859270       0.06612520
H       13.47730000       6.23310000      16.11690000       0.00590483      -0.00927753      -0.04065360
H       13.96930000       5.29970000      18.91690000      -0.01073520       0.02567230      -0.02525090
O        2.94260000       2.27380000       6.60920000       0.02210220      -0.03888360       0.04746700
H        3.49660000       1.47440000       8.38090000      -0.01158580       0.04097870      -0.03224680
H        2.94472000       0.70370000       5.68830000      -0.00716553       0.00191199      -0.01585360
O       12.38330000      14.60320000       3.55607000       0.12484700       0.15093600      -0.01023380
H       12.50440000      13.53720000       2.29943000       0.02455000      -0.07145790      -0.10904400
H       11.21930000      13.93800000       4.37851000      -0.15394800      -0.07200410       0.12179300
O       22.11360000       8.46660000      15.46420000      -0.08374440       0.08404970      -0.00136956
H       23.60070000       7.68130000      15.15120000       0.06505730      -0.01668560      -0.01903930
H       21.67820000      10.27010000      14.26840000       0.02631430      -0.06119690       0.02116810
O       10.07650000       2.05320000      10.84550000       0.01349470      -0.00328961      -0.00563534
H       10.53430000       2.13660000       9.02365000       0.00616204      -0.01017470       0.03097370
H       11.18250000       0.87330000      11.88960000      -0.01397930       0.02065630      -0.02124870
O        4.42080000       6.63291000      18.74570000       0.03119310      -0.00196092       0.04273980
H        3.68500000       7.63914000      20.19520000       0.00598232      -0.02564250      -0.02825740
H        6.12350000       5.97775000      19.51960000      -0.03658990       0.02187530      -0.02067590
O        2.78200000       8.03460000      12.14800000       0.02359890       0.00220829       0.07831770
H        2.91940000       6.40730000      13.00520000      -0.00583040       0.00760624      -0.01579260
H        2.24680000       7.96180000      10.50920000      -0.01959520      -0.01565850      -0.05741130
O       16.25090000      14.59080000       7.05600000      -0.03868660       0.02125490      -0.05706720
H       17.82430000      14.00970000       6.43950000       0.03311040      -0.01447690       0.00065067
H       15.46330000      15.03910000       5.28170000       0.00465907      -0.01599090       0.05429830
O        0.65550000      21.97745000      15.38690000       0.01743870       0.01463790       0.03431380
H        0.53520000      23.81089400      15.91320000      -0.00587172      -0.04682330      -0.03645350
H       24.05700000      21.14935000      14.00080000      -0.00512743       0.03132810      -0.00673713
O       20.09720000       8.27735000       8.80340000      -0.08895340      -0.02758640       0.04056650
H       18.30570000       8.22267000       8.05260000       0.05103250       0.00819346      -0.01308740
H       19.30150000       7.28587000      10.40980000       0.04759630       0.01963020      -0.02339290
O       12.50400000      14.85340000      14.88022000      -0.00610540      -0.03228980      -0.00859632
H       14.19860000      15.46050000      14.72527000       0.01520520      -0.00353061       0.00169090
H       12.47570000      13.26060000      13.86410000       0.00031867       0.02973240       0.00207622
O        4.73170000       1.65020000      11.34760000       0.06522930       0.00711943      -0.01764410
H        6.67580000       2.13630000      11.47550000      -0.05729540      -0.01947980      -0.00380369
H        3.91950000       2.05260000      12.89660000      -0.00536957       0.00484875       0.01832930
O       15.60760000      22.19063000       5.46048000      -0.03022480       0.05269760      -0.01371390
H       14.26860000      23.72728200       5.43471000       0.04830750      -0.04998800       0.01179780
H       15.56080000      21.12112000       6.96854000      -0.00999065       0.01122450      -0.00235456
O       13.98340000      22.30521000      21.92530000      -0.10968800       0.10306500      -0.00677365
H       15.11090000      21.83846000      20.82340000       0.09826430      -0.04076450      -0.07907550
H       14.01780000      21.46670000      23.37700000       0.01004500      -0.05940830       0.07977980
O        4.28893000      12.64050000      13.70750000       0.00378320      -0.05606030       0.07010810
H        4.41935000      12.73400000      15.67945000      -0.00370904       0.00985255      -0.05134850
H        3.90662000      10.66830000      13.62630000       0.00429115       0.05300290      -0.01797990
O       18.11050000      15.38290000      15.31460000      -0.04080660       0.05469720       0.07320590
H       18.04910000      17.13130000      14.69960000       0.00463323      -0.00828378      -0.00476040
H       18.75660000      14.26540000      14.22220000       0.03392390      -0.04843750      -0.06395730
O       10.15240000      19.44140000      14.79750000       0.04280180      -0.06936700      -0.01346000
H       11.12660000      17.61410000      14.83097000      -0.03974340       0.06004530       0.00197199
H        8.47861000      19.06870000      15.41434000      -0.00549699       0.00857206       0.00901016
O        0.64410000       6.95820000       7.32090000      -0.05168090      -0.01274780       0.00742395
H       22.94420000       7.29070000       7.77800000       0.06710760      -0.02201780      -0.01825950
H        1.09080000       5.11710000       6.99580000      -0.01848240       0.03355720       0.01224240
O       16.81922000       8.24756000       4.74701000      -0.03866730      -0.01256300      -0.05395030
H       17.73442000       9.75195000       4.28548000       0.00724922       0.00390018       0.00026985
H       15.75937000       7.85337000       3.12268000       0.03006900       0.00470842       0.05531090
O       18.23730000      21.70070000      18.83200000       0.02359820       0.00480109       0.03413330
H       19.88470000      20.88680000      19.15860000      -0.01304750       0.00790192      -0.00034152
H       17.69720000      21.00790000      17.31540000      -0.01083060      -0.01073650      -0.03572250
O       23.23769000      19.74520000      19.51940000      -0.03962140      -0.06958310       0.07595080
H       22.95058000      17.78010000      19.72810000       0.01263910       0.06041660      -0.01843000
H       23.99838700      20.33750000      18.06360000       0.02377360       0.00347235      -0.05271370
O       14.89490000      18.88070000       1.55297000      -0.07292460      -0.06464700      -0.00552183
H       15.49780000      20.23850000       2.46258000       0.01166600       0.03975000       0.04164460
H       13.22800000      18.24450000       2.48996000       0.06439630       0.02306180      -0.03241640
O       21.11230000      14.66040000      19.92710000       0.02619180      -0.01818280       0.00904457
H       21.98920000      13.06550000      19.55730000      -0.00044257       0.01116620       0.02716430
H       20.24440000      14.73100000      18.38280000      -0.03248500       0.01942220      -0.02803390
O        7.69440000      18.95660000      24.17690600      -0.00731436       0.01464760      -0.04020800
H        8.03530000      17.28720000      23.63302900       0.00170204      -0.02084800       0.00440571
H        7.68660000      19.16830000       1.60529000       0.00543289      -0.00368783       0.04111850
O        7.88236000      20.63010000       4.97960000       0.01279240       0.08032830      -0.05970790
H        8.16796000      19.94760000       6.51460000       0.01489090      -0.03823550       0.07112250
H        8.75601000      22.40350000       5.12420000      -0.03545790      -0.04939560      -0.01357560
O        3.89086000       6.17370000       2.01743000      -0.02694520       0.00088364       0.04083800
H        3.10596000       5.64810000       3.77656000       0.02241000       0.03203340      -0.06518150
H        3.13857000       7.71720000       1.09902000       0.00523468      -0.03351840       0.02666070
O       13.00480000      11.67830000      10.21100000       0.02066760       0.00885878      -0.01753340
H       13.44250000       9.88160000      10.25300000      -0.00637833       0.01174580       0.00180221
H       14.13560000      12.59890000       8.98484000      -0.01510790      -0.01951460       0.02002280
O       18.82621000       5.62445000      13.14810000      -0.05554970       0.01938140      -0.01560050
H       20.15309000       6.24708000      14.12260000       0.02203740       0.04367930       0.03950420
H       19.76197000       4.27857000      12.56170000       0.01441020      -0.05939430      -0.03381890
O        2.46780000       9.39160000      22.88054000      -0.05198910      -0.07780880       0.04898950
H        3.28880000      10.64730000      22.11331000       0.02489660       0.07681300      -0.03879190
H        0.59290000       9.42800000      22.73863000       0.02373360       0.01203810      -0.01652770
O       22.01510000       9.51079000      20.80910000       0.01245540       0.03130550      -0.07197740
H       21.04340000       8.20539000      21.41190000      -0.03085850      -0.04101950       0.02994940
H       21.69130000       9.31444000      18.87530000       0.02044600      -0.00129614       0.03952840
O       14.75120000       3.66350000      21.84500000      -0.22192500       0.09810330      -0.02038330
H       16.23240000       3.27570000      21.91320000       0.26711100      -0.04681590       0.01125790
H       14.05430000       2.10830000      22.08170000      -0.04302720      -0.05871710       0.00620023
O        8.26860000      13.49230000      22.23270000      -0.04805020       0.00005132       0.06169180
H        9.50860000      12.98590000      21.08250000       0.03044120      -0.02744020      -0.00996340
H        7.85300000      12.27340000      23.67350000       0.03078540       0.01799750      -0.04059260
