192
Lattice="24.05554 0.0 0.0 0.0 24.05554 0.0 0.0 0.0 24.05554" Properties=species:S:1:pos:R:3:force:R:3 TotEnergy=-1103.43192 cutoff=-1.0 nneightol=1.2 pbc="T T T"
O       20.50740000       3.30894000      16.48368000       0.00904960       0.00595485      -0.02965590
H       21.09940000       3.25307000      18.20368000      -0.00438090      -0.00871084       0.01112340
H       18.99690000       2.34403000      16.00628000       0.00772830      -0.00929669       0.02230970
O       22.73336000      20.03626000      10.77140000       0.11073600      -0.03937020       0.21481400
H        0.18072000      18.73616000      10.79520000      -0.04345060       0.04164530       0.00251838
H       22.31946000      19.94156000       9.26486000      -0.06412430       0.00122933      -0.21669500
O       10.37220000       0.97192100      16.50960000       0.00331322       0.00098866       0.00333976
H        8.54928000       0.69773000      16.38730000       0.01755260      -0.01240540      -0.00178656
H       11.38540000      23.53692300      16.08970000      -0.02545850       0.01442550       0.00578644
O       19.38157000      14.86164000      22.72498000      -0.02504160       0.05659140       0.03656290
H       18.72056000      16.58790000      22.04018000       0.02328130      -0.05140610       0.02884210
H       19.13393000      14.92488000       0.72761800       0.00185591      -0.00254209      -0.06472140
O        6.68952000       9.24716000      20.99510000       0.01608780      -0.17834900       0.07403570
H        6.83979000      10.51146000      20.07400000      -0.00568414       0.19486000      -0.11452300
H        7.97608000       8.30646000      19.99230000      -0.00674368      -0.01496690       0.03432880
O       21.78177000      14.75910000       7.14367000       0.04570090       0.02230580       0.02691730
H       23.11761200      13.50550000       6.81390000      -0.01351670       0.00840588      -0.00032618
H       22.83247000      16.16600000       7.95639000      -0.03047380      -0.03880960      -0.02356700
O       14.05996000      22.84280000      11.44040000       0.02095720       0.02546380      -0.00584801
H       14.87016000      22.18890000       9.91632000      -0.01821560      -0.00452198       0.00987756
H       13.12246000      21.68250000      12.44310000      -0.00921718      -0.02016430      -0.01337940
O        0.05487400      23.64208000      14.92740000      -0.03140580       0.05373800      -0.03762360
H        0.27293700      22.82608000      13.21270000      -0.01983930       0.02584660       0.03101350
H       22.79584000       1.29574000      14.94390000       0.04477650      -0.07211870       0.00106925
O        6.43156000      13.46718000      17.38470000       0.06065960      -0.01807250      -0.04346980
H        8.39196000      13.54038000      16.70920000      -0.07022750       0.00103873       0.03231950
H        6.32686000      14.66078000      18.70850000      -0.00311257       0.01810000       0.01329070
O        9.09066000      22.69478000       1.35404000       0.05160210      -0.05803460      -0.09338630
H       10.80690000      22.83448000       0.24734000      -0.05494530      -0.00952328       0.02888090
H        9.11890000      24.03358000       2.37184000       0.00304137       0.06952400       0.05953330
O       12.85674000       4.27885000       5.85264000      -0.02963690      -0.04999870       0.04870500
H       11.01824000       3.88110000       5.80493000       0.02200410       0.00263607      -0.01444870
H       13.35554000       5.49257000       4.72434000       0.00821530       0.04201960      -0.03762840
O       13.72524000       8.58296000       2.40062000      -0.03284290      -0.00396038       0.00285122
H       13.87054000       7.78716000       0.75782000       0.00023796       0.00714785       0.01374170
H       11.83824000       8.91836000       2.83502000       0.04185770       0.00080387      -0.00861281
O       14.07830000      18.54918000       3.03404000      -0.12433600       0.08250600      -0.03933910
H       15.43770000      17.72998000       3.39104000       0.11730200      -0.09045690       0.03111070
H       12.86650000      17.52178000       2.13674000       0.00747829      -0.00317718       0.00850124
O        2.09946000      15.76270000      10.22206000       0.03079860      -0.00423970      -0.06171460
H        3.86866000      15.32470000       9.64066000      -0.03744030       0.02106610       0.01748010
H        2.01856000      15.73480000      11.95286000       0.00516537      -0.00978502       0.05340180
O       23.00296000       3.12215000      21.44115000      -0.00788082      -0.01304090       0.00840675
H        0.68137500       3.83180000      21.13281000      -0.02148260      -0.02116750       0.01389790
H       22.89481000       1.37166000      22.31198000       0.02348780       0.03439730      -0.02558970
O       21.76808000      21.56790000       5.90366000      -0.05163820       0.01032750       0.00564326
H       19.84158000      21.90630000       5.92136000       0.06187600      -0.00028531       0.00086376
H       22.80868000      23.00700000       6.55306000      -0.01679060      -0.01516580      -0.01420460
O       18.09468000       9.98741000      21.35840000      -0.04146540       0.01777410      -0.05999280
H       17.08078000       9.68780000      19.73940000       0.02103940      -0.01625310       0.03724540
H       17.67088000      11.79270000      21.27380000       0.02168670      -0.00441537       0.02569000
O        9.26504000      10.07312000       3.93844000       0.02455700       0.00580829      -0.03835790
H        8.88074000      10.56922000       5.58114000      -0.00655247       0.00879620       0.03729420
H        8.05384000       8.94222000       3.24734000      -0.02779650      -0.01159710      -0.00306056
O       17.02542000      23.75200000      15.50716000       0.04613700      -0.02533640       0.04003440
H       15.96152000      23.78290000      14.17396000      -0.05998620       0.02210240      -0.06154070
H       17.67092000      22.09040000      15.01216000       0.01505890       0.00578530       0.02510780
O        8.55062000       1.65034000       5.69277000       0.12197100       0.03390400      -0.09828600
H        7.84142000       1.21734000       7.06165000      -0.06204910      -0.05646350       0.15829100
H        7.14782000       2.06634000       4.81320000      -0.06592500       0.02621830      -0.05456030
O        7.37606000      17.18790000       8.62374000       0.03389490       0.03109600       0.04155300
H        7.93956000      15.43330000       8.86034000       0.00937363       0.01591010       0.00162087
H        8.43396000      18.39580000       9.93414000      -0.03567140      -0.05301160      -0.04037890
O       14.90549000       7.69952000      13.55472000       0.10231400      -0.00887904       0.01447800
H       13.80844000       6.47892000      13.04422000      -0.05801240      -0.04747940      -0.02718810
H       16.59366000       6.52806000      13.41482000      -0.04903360       0.06125990       0.00611574
O        4.00656000       0.19660400      22.56062000       0.01291520      -0.07769390       0.04749010
H        3.03474000      22.66019000      23.34825900       0.03489040       0.05753220      -0.02933240
H        5.80106000      23.64375300      22.97348000      -0.04107780       0.01786250      -0.01220850
O       19.51466000       6.09708000       0.55246000       0.02747660      -0.08053900      -0.03352100
H       19.85626000       7.58683000      23.72420000      -0.00373228       0.03469780      -0.01660800
H       20.46176000       4.77654000      23.30760000      -0.01841470       0.04478570       0.05161020
O        1.49263000      10.08672000       6.15336000      -0.03019370       0.01253620       0.04137160
H       23.96978400       9.01802000       6.21946000       0.03056860       0.00174181      -0.02040630
H        2.73441000       9.66272000       4.95846000       0.00095923      -0.01821440      -0.02419730
O        9.22457000      12.16276000       8.91031000      -0.07311930      -0.00418398      -0.01474140
H        7.80254000      11.08096000       9.59788000       0.03838170       0.01064610      -0.00353653
H       10.87000000      11.85986000       9.48187000       0.02555700      -0.01038370       0.02239410
O        7.01994000      20.28020000      17.20090000      -0.04105560      -0.00943861      -0.01046870
H        5.08044000      19.95880000      17.23750000       0.05213840       0.00785004       0.01346030
H        7.82664000      19.29360000      18.51820000      -0.00996444       0.00439394      -0.00402732
O        5.19936000       7.63896000       1.69732000      -0.00794241      -0.05009620       0.07128450
H        5.45506000       8.17526000       0.05832000       0.00418004      -0.00084908      -0.04531810
H        4.91736000       5.72656000       1.97562000       0.00220797       0.05015890      -0.01446440
O       13.69760000       9.08706000      18.17070000       0.01782480       0.05674880      -0.00432624
H       13.99230000       8.55536000      16.45250000       0.00209010      -0.01483260      -0.00871391
H       13.04710000       7.87296000      19.23340000      -0.01939080      -0.03646810       0.01307490
O       22.70573000      22.28838000      22.96390000       0.06319950       0.02223530      -0.02874230
H       20.99766000      22.20458000      22.78870000      -0.06018790      -0.01713340       0.01284230
H       23.41168200      22.00118000       0.53046000      -0.01097900      -0.01405210       0.02074040
O        4.87757000      16.14240000      22.00615000      -0.03959670      -0.05992580      -0.00418640
H        6.43247000      15.59410000      22.83626000      -0.00980710       0.00156267       0.00591538
H        3.63705000      14.53120000      21.99736000       0.04104010       0.05747660      -0.00091083
O        4.39641000       3.10962000      15.95830000      -0.06162670      -0.00075764      -0.00936815
H        2.99370000       2.25399000      14.93880000       0.04156400       0.01144380       0.02266480
H        3.29801000       4.24309000      17.08080000       0.03552660      -0.01934770      -0.00597660
O       10.14218000       5.47222000      20.53778000       0.01944130      -0.04490300      -0.01369010
H       10.05038000       3.81102000      19.53708000       0.00499749       0.04593830       0.02279900
H       11.66118000       5.26742000      21.64458000      -0.02256310      -0.00706159      -0.01484670
O        5.29020000      23.81316000      10.35994000      -0.02704940      -0.11295100      -0.01231990
H        5.94888000       1.29052000      10.88034000       0.02618360       0.03869650       0.03974320
H        5.65653000      22.11626000      11.30624000      -0.00304454       0.07428880      -0.02700970
O       16.78048000      10.25716000       6.35863000       0.02183790      -0.02399720      -0.01927770
H       16.00318000       9.42476000       4.80112000       0.01597230       0.01005750       0.02683450
H       18.40758000       9.34636000       6.86471000      -0.04003350       0.01598510      -0.02004820
O       21.68690000      11.34546000      12.51100000       0.06195520      -0.02650410       0.04290660
H       23.58320000      11.74196000      12.77310000      -0.04556060      -0.00598112      -0.00438041
H       21.01980000      12.37316000      11.28290000      -0.01405180       0.03062360      -0.03616240
O       12.22674000       4.08774000      11.05130000       0.01186740      -0.01894470      -0.05512030
H       12.31444000       4.34874000       9.05548000       0.00754878      -0.00396296       0.05714790
H       13.04544000       2.39454000      11.24840000      -0.01847680       0.02233430      -0.00210673
O        2.85718000       6.07658000      19.59170000       0.05816020       0.00523858       0.01045690
H        1.39888000       6.87457000      18.91680000      -0.00513634       0.03063060      -0.00372785
H        4.54538000       7.21817000      19.73220000      -0.06976300      -0.02457290      -0.00051993
O        4.86204000       9.19504000      10.33556000       0.03254430       0.03390140       0.02817670
H        4.60774000       7.47184000      10.41226000       0.01143250      -0.05301310       0.01370600
H        3.69344000       9.61174000       9.12116000      -0.04212140       0.02631850      -0.04570730
O       18.10250000      14.74930000       3.69026000       0.00060652      -0.04896090       0.06930430
H       19.32090000      14.93500000       5.14836000       0.00438453       0.02372830      -0.02991440
H       17.58250000      13.08560000       4.69656000      -0.00585499       0.03111250      -0.04535610
O        1.75684000      20.21133000      17.97996000       0.00424407      -0.00892533       0.01185590
H        0.82694000      20.44017000      19.56966000       0.01083390       0.01131830      -0.01924270
H        1.40834000      21.58177000      16.76906000      -0.01511540       0.00341342       0.01755180
O       20.82586000       3.15121000       9.26516000      -0.03665540       0.00300006       0.07372190
H       20.23126000       4.22774000      11.14036000       0.02664870      -0.01634920      -0.07803090
H       19.75876000       1.62793000       9.37166000       0.01236830       0.01855020      -0.00723628
O       14.31785000      16.38758000      13.74514000      -0.00481631      -0.00007897      -0.00171624
H       16.10243000      16.71008000      13.69014000       0.01074340       0.01347730       0.01793140
H       14.18494000      15.33928000      12.29254000      -0.00799878      -0.01986280      -0.01265540
O        6.66932000       4.41224000      11.81534000       0.00859418       0.00873069       0.06897010
H        8.46292000       4.44184000      11.61024000       0.01707230       0.00043437      -0.01318340
H        6.64712000       4.50464000      13.85854000      -0.02268220      -0.01136190      -0.06774170
O       15.10250000      22.64480000       6.04549000       0.04423620       0.03374570       0.09685350
H       14.59970000       0.17107800       5.52161000      -0.01539640       0.04328590      -0.01130660
H       14.78410000      21.55525000       4.82748000      -0.02691610      -0.07263610      -0.07758820
O       10.63048000      18.09956000      20.48586000       0.00945031       0.03298470      -0.03771950
H       11.07568000      16.57738000      19.63786000       0.01055840      -0.01673440      -0.01320500
H       10.04598000      17.62291000      22.02566000      -0.02581630      -0.02605670       0.06264830
O        2.41612000      11.07814000      14.60877000       0.03839180       0.04896390       0.01471010
H        3.32647000      12.48674000      15.74042000      -0.02208870      -0.04949550      -0.04018450
H        3.59912000      10.60064000      13.22034000      -0.01202540       0.00330586       0.01964310
O       19.27710000      18.31570000      15.10460000      -0.00439988      -0.02498170      -0.00852072
H       20.07740000      18.57610000      13.49840000       0.00557331       0.00972577      -0.00445757
H       20.31740000      16.84840000      15.68360000      -0.00415283       0.02445480       0.00490554
O       10.01000000      19.38060000      12.76784000       0.04586780      -0.05100990      -0.00413143
H       11.07120000      17.77950000      13.30484000      -0.02954270       0.05696430      -0.01472150
H        8.95537000      19.78760000      14.16173000      -0.01646440       0.00011985       0.02274060
O        1.09606000       1.05902000       7.24066000      -0.04486700       0.02083330       0.02590960
H       23.69900000       1.82592000       8.35756000       0.04054050      -0.00992672      -0.02706920
H        2.39276000       0.45782000       8.36456000       0.00588734      -0.00450047       0.00881421
O       21.48504000       6.89423000       5.59334000      -0.02941830       0.00526292      -0.04221530
H       21.15666000       5.51972000       6.80182000      -0.00445055       0.00429246      -0.02008510
H       20.57516000       6.70120000       3.76968000       0.03143820      -0.00836177       0.05937440
O       12.38430000      22.53068000      21.54730000       0.01981910      -0.07283300       0.03630790
H       11.61280000      20.65778000      21.25150000       0.02082850       0.05583110      -0.01190600
H       11.53050000      23.81738000      20.75620000      -0.03066850       0.02303360      -0.03392080
O       17.45930000      20.32420000      23.05256000       0.08168580       0.02591620      -0.06177640
H       16.44076000      21.23870000      21.93656000      -0.01619950       0.01472350      -0.02196000
H       16.37251000      19.75280000       0.12282000      -0.06761280      -0.03666570       0.07859140
O        9.08396000      15.40476000       1.11579000      -0.00352076      -0.06902400       0.01613170
H        8.22756000      16.65186000       2.19543000      -0.00752385       0.00322848      -0.00006862
H        8.70546000      13.60566000       1.91687000       0.01896110       0.06018750      -0.02512800
O       23.45490000      16.10260000      16.55548000       0.02858420       0.02362520       0.00370969
H       23.46300000      15.22590000      18.12248000      -0.00328438      -0.02499840       0.01062410
H        0.50176000      17.57900000      17.18678000      -0.02299730      -0.01395900      -0.02604790
O        1.92864000      19.63936000       1.80032000       0.01521420      -0.05383080      -0.04652810
H        2.25234000      18.40776000       0.20828500      -0.00500959       0.04261950       0.06549380
H        2.75924000      18.79156000       3.24736000      -0.00637988       0.01522240      -0.02541950
O        6.87487000      18.85108000       3.68696000      -0.01657180      -0.01317950      -0.00649946
H        7.83300000      18.32608000       5.09416000       0.00295914      -0.00217649       0.03199040
H        7.59845000      20.40668000       3.14646000       0.00829012       0.01521290      -0.01180650
O        4.02625000       2.61376000       3.34549000       0.01541640       0.03836670       0.07424650
H        3.78671000       1.89926000       1.81698000      -0.01657910      -0.03928400      -0.06997760
H        2.76903000       2.05596000       4.59860000       0.00208309       0.00451132      -0.01008500
O       14.31470000      12.04814000      10.48060000      -0.00577640       0.04771270      -0.07079510
H       14.15419000      10.44094000      11.13500000       0.00739869      -0.04628150       0.02238510
H       14.62297000      11.80964000       8.56391000       0.00528887      -0.00078300       0.05233220
O       20.00515000       6.60464000      12.84000000      -0.03690260       0.02104510      -0.05482300
H       20.89578000       8.22033000      12.71910000       0.00044902       0.00765949      -0.00587913
H       20.71443000       5.54505000      13.97800000       0.03411760      -0.03436680       0.06859450
O        0.21176000      13.26834000      20.95126000       0.14362600       0.00622298      -0.06949810
H       23.56160000      11.73914000      20.67764000      -0.01333570      -0.08008980      -0.03315810
H       23.07790000      13.77584000      21.89639000      -0.12765500       0.08312590       0.11215100
O       23.08970000       9.44821000      18.03586000      -0.01398740      -0.00524041      -0.03529710
H       21.48560000       9.19310000      17.20206000      -0.00528258      -0.00450890       0.01948390
H       23.90370000      10.17910000      16.53766000       0.01605100      -0.00193011       0.01620980
O       14.33540000       3.73346000      23.21276000       0.03385640      -0.02989040      -0.00913713
H       16.13860000       4.21936000      23.06836000      -0.02183830       0.00469621       0.00786045
H       14.45780000       1.87436000      22.96936000      -0.00897599       0.02708390       0.00423680
O       11.41644000      13.88060000      17.53750000      -0.14824300      -0.01781160       0.12122600
H       12.42044000      14.41310000      16.44500000       0.13659900       0.06971030      -0.14538200
H       12.05204000      12.42090000      18.22750000       0.02370090      -0.05355310       0.01890950
