192
Lattice="24.77489 0.0 0.0 0.0 24.77489 0.0 0.0 0.0 24.77489" Properties=species:S:1:pos:R:3:force:R:3 TotEnergy=-1103.45523 cutoff=-1.0 nneightol=1.2 pbc="T T T"
O       24.56460000      20.95888000      17.01398000       0.08062420      -0.06757560       0.00835550
H       22.89020000      20.90164000      16.77468000      -0.09150280       0.02304620      -0.01676770
H       24.73040000      19.05492000      16.76938000       0.01207480       0.03557090       0.00768506
O        0.31922000      23.63131000      21.68774000       0.11383200       0.09792150       0.03805450
H        2.20022000      24.11301000      20.95397000      -0.08046700      -0.01947810       0.01920670
H       24.47011000      22.31051000      20.86032000      -0.02686090      -0.07082550      -0.05839670
O       14.33690000       0.64783000      16.97230000       0.01639330      -0.02852510      -0.00708777
H       14.44330000       1.88140000      18.34940000       0.01126960      -0.01316370      -0.00338089
H       15.11960000      23.66941000      17.44710000      -0.03404200       0.05789960       0.00648138
O       19.43152000      14.86443000      22.24126000      -0.01836000       0.00709039       0.01012630
H       20.49206000      14.13329000      20.99492000       0.01488820      -0.00987698      -0.00691098
H       20.19589000      16.27377000      23.09451000       0.00104437       0.00110357      -0.00139740
O        5.07511000       7.81111000      18.90860000      -0.02356880      -0.03652780      -0.07832770
H        6.43842000       8.09001000      19.98860000       0.03804390       0.01038550       0.00652482
H        5.67966000       7.29461000      17.01420000      -0.01535360       0.02604360       0.06081700
O       18.63567000      10.97010000       8.20218000       0.11998600       0.00083022       0.11581400
H       18.54848000      12.66580000       8.15297000      -0.02306890       0.07914770      -0.00286335
H       17.70673000      10.20080000       7.14709000      -0.10338200      -0.07757220      -0.11931700
O       21.39811000       4.06351000      13.95320000       0.02887010      -0.00230385       0.00083753
H       23.16701000       3.35361000      13.84160000      -0.02994760       0.00658408      -0.00374228
H       20.23411000       2.78901000      13.42420000      -0.00192876      -0.00986256      -0.00322997
O        0.15761200      17.26768000       7.47632000      -0.06750300      -0.03804260      -0.07595950
H        1.20910000      17.62598000       8.70203000       0.10346200      -0.00225568       0.09803400
H       24.15362800      18.86208000       7.56127000      -0.03429030       0.03102030      -0.02212220
O        8.52441000      14.51468000      17.48140000      -0.02596080       0.00460165      -0.04428140
H        7.03791000      14.06438000      16.30800000       0.02365720       0.01245180       0.01575700
H        8.09791000      13.57968000      18.92740000      -0.00005427      -0.01804750       0.02828270
O        8.76448000      21.48968000      23.90608000       0.10998000       0.07120810      -0.12502400
H       10.54900000      21.43338000      24.48248000      -0.02115730       0.00672257      -0.01528040
H        8.03760000      20.84618000       0.40349000      -0.08861830      -0.07856610       0.14135700
O       10.54699000       2.50355000       9.65296000       0.00579305       0.02185500      -0.03208280
H       11.26809000       3.30059000       8.09886000      -0.00357499      -0.01685740       0.02010850
H       10.78139000       3.77768000      10.93930000       0.00450742       0.00295580       0.00981916
O       12.70499000       4.46361000       4.36972000       0.04671630      -0.02264100      -0.04318100
H       11.08339000       4.63791000       3.62552000      -0.01603500       0.00788414      -0.00144581
H       13.81939000       3.83161000       2.79392000      -0.03238490       0.01406880       0.04454710
O       12.32360000      15.49688000       8.05619000      -0.06595520      -0.05606300      -0.04198910
H       12.58650000      15.12158000       6.19949000       0.01043820       0.02394160       0.02191730
H       10.71490000      14.30468000       8.01539000       0.04187010       0.03078610       0.02004160
O        4.16591000      13.49800000      14.47561000      -0.02792020       0.07966120       0.04259520
H        2.29891000      14.16600000      15.02811000       0.03660780      -0.03971330      -0.01653140
H        4.31451000      11.90040000      13.79981000      -0.01527470      -0.03864230      -0.01976230
O       24.20302000       2.70295000       3.33585000      -0.03405440      -0.02071740      -0.02092750
H        0.33067700       1.27611000       2.69453000       0.00069135      -0.01325500       0.00078041
H        0.66672600       3.74933000       3.94880000       0.03157440       0.03101320       0.01976900
O       18.22908000      23.89080000       6.91321000       0.02149130       0.01987190       0.01772340
H       18.28248000       0.85091000       6.26901000      -0.00962767      -0.01469380      -0.00364695
H       17.30398000      22.76890000       5.88221000      -0.01858410      -0.00934455      -0.01799100
O       15.59698000      12.21570000       0.54011000      -0.03154100      -0.02987440      -0.00838511
H       14.85608000      11.00780000      24.00970000       0.02067720       0.02728010       0.01549090
H       17.08618000      12.93690000      24.60330000       0.00749723       0.00191381      -0.01249430
O        2.62969000      17.01402000       2.83709000      -0.00192848      -0.02828460      -0.06088880
H        2.14139000      16.89312000       4.56189000      -0.01457190      -0.01462140       0.01906060
H        2.09039000      15.38622000       1.79819000       0.01575670       0.04378060       0.05044950
O       19.73282000      21.28260000      14.95901000       0.01201280       0.01194990      -0.01119660
H       19.03462000      22.67250000      14.02221000       0.01298960       0.02123590      -0.02229930
H       18.18332000      20.89760000      15.68101000      -0.02842110      -0.03147040       0.02795900
O        7.60142000       6.18229000       3.69753000       0.03511750       0.04550820       0.02321660
H        6.74952000       5.78129000       5.19263000      -0.01138940      -0.00195245       0.03321350
H        6.87942000       5.18729000       2.52245000      -0.02875640      -0.05265910      -0.05900510
O        4.14141000      17.46140000      10.58739000       0.03275490      -0.01897160       0.08680690
H        6.02321000      18.18820000      10.59209000      -0.05471200      -0.01939820      -0.01523770
H        4.21211000      16.48110000      12.35439000      -0.01046820       0.02416270      -0.06608510
O       11.22429000       4.67250000      14.41072000       0.09652920       0.00798789       0.01444450
H       12.63139000       6.22154000      14.15322000      -0.05371470      -0.02109380       0.00097295
H       12.54249000       3.50666000      15.22552000      -0.04470240       0.01256660      -0.01643640
O        6.78631000       2.04379000      24.30182600       0.04893670      -0.09392090       0.14762200
H        6.40825000       2.26499000      22.74527000      -0.04069750       0.02886510      -0.15289900
H        7.17548000       0.06821400      24.26326300      -0.00579643       0.06662010       0.00740151
O       18.59391000       3.73554000       4.19781000       0.01418670      -0.07586730      -0.01283340
H       18.39041000       5.40036000       4.70611000       0.01051670       0.04471990       0.00821000
H       20.27681000       2.98685000       3.97911000      -0.00656711       0.03028660       0.00791750
O       23.61516000      12.03372000       6.90911000       0.04401360       0.00972626      -0.01732210
H       22.01127000      11.66332000       7.41321000      -0.06234390      -0.04926520       0.01473910
H       23.38621000      13.77012000       7.26591000       0.02742510       0.03203470      -0.00398544
O        9.78520000       8.42851000       9.85837000       0.04773050       0.07098130      -0.07488310
H        9.07853000      10.10901000       9.09655000       0.00916168      -0.05158280       0.02206210
H        8.74407000       7.72841000      11.01280000      -0.05187340      -0.01525280       0.04982040
O        9.29889000      19.74890000      18.52690000       0.03027330      -0.01712560      -0.10505400
H        9.23819000      17.93790000      18.22300000      -0.00562567       0.00158969       0.00848643
H        8.83189000      20.19890000      20.07170000      -0.03095820       0.01627530       0.09412740
O        7.03141000      10.97011000       1.84772000       0.00231917      -0.01000650      -0.00536897
H        6.94741000       9.17191000       2.12872000       0.01809670      -0.00902624       0.01179220
H        5.25551000      11.22141000       1.84142000      -0.02251760       0.02043140       0.00049154
O       14.10660000       9.46351000      20.80210000      -0.00599994      -0.00948982       0.02859900
H       14.24130000      10.65651000      19.47300000       0.00340103       0.00547927      -0.01877680
H       14.73680000       7.75221000      20.43990000      -0.00199068       0.00852995      -0.00520470
O        4.92825000      22.65838000      15.82820000       0.03452530      -0.05894250       0.01137430
H        3.43245000      21.53388000      16.09970000       0.02711350       0.02174050      -0.00410027
H        6.53898000      21.52518000      16.16620000      -0.05638460       0.03468870      -0.00707199
O        0.74863700      22.02170000       2.03544000       0.02040660      -0.04950410      -0.02417970
H        1.27337000      20.19390000       2.52911000      -0.00563177       0.04554910      -0.01846550
H        1.22987000      22.14740000       0.16921700      -0.01809500       0.00165456       0.03932090
O        1.37161000       1.56268000      13.48220000       0.00257709       0.00164279       0.01597350
H        2.35695000       0.88280000      12.11090000      -0.00376450      -0.00542179       0.00225931
H        1.96967000       0.79985100      15.05520000      -0.00229626       0.00615659      -0.01838770
O       15.62058000       4.66962000      20.28568000      -0.02275910      -0.02976240       0.03450910
H       17.36228000       4.83052000      19.83198000       0.01358550       0.00237025      -0.00061290
H       15.51828000       3.80112000      22.04368000       0.01304490       0.03152660      -0.03755540
O        5.72691000       4.60142000       8.98179000      -0.03107230      -0.03192190      -0.00749513
H        7.34884000       3.72772000       8.94559000       0.00247187       0.00144497       0.00405337
H        4.49866000       3.16122000       8.88029000       0.02043150       0.02412000       0.00015806
O       12.28768000      16.09491000       2.85629000      -0.00255737       0.12467400       0.11933400
H       12.71968000      14.91721000       1.85764000       0.03283840      -0.12602900      -0.11305600
H       10.62248000      16.74591000       2.88604000      -0.02725810      -0.00035358      -0.01200890
O       13.56720000       8.96071000      13.52890000       0.00878696      -0.00632317       0.05418590
H       15.35320000       9.07071000      13.23430000       0.01903230      -0.00940822      -0.00644011
H       12.77590000       9.30941000      12.02290000      -0.03067460       0.00612922      -0.04844630
O        7.55519000      12.41449000       7.29458000       0.06940990       0.00647385      -0.02897100
H        7.72529000      11.80369000       5.51905000      -0.02510140       0.00737895       0.02672340
H        6.04369000      12.33429000       8.19655000      -0.03911900      -0.01065370       0.00097746
O        4.50668000       1.90775000      19.16370000       0.08778700       0.06041910      -0.08736550
H        5.65288000       1.09109000      17.68550000      -0.05130300       0.00881389       0.05743910
H        5.20268000       3.85122000      18.61650000      -0.04317610      -0.06825490       0.03775270
O        3.07579000      10.13729000       9.63031000       0.03400130      -0.05541460       0.02067920
H        3.53559000       8.18989000       9.76401000      -0.02640320       0.07453200      -0.02024680
H        1.83409000      10.69159000       8.41341000      -0.00690654      -0.01871150       0.00218358
O       16.30450000      19.19230000       5.00801000      -0.03291760       0.02767530      -0.12357600
H       16.58540000      18.43070000       6.55111000      -0.00679670      -0.04493350       0.03437020
H       15.09820000      18.42000000       3.47481000       0.03421600       0.01285690       0.08861710
O        2.85469000      23.98714300       8.46551000      -0.01438280      -0.10487300       0.02975640
H        3.86929000      22.41172000       9.13291000      -0.01411440       0.05736780      -0.01945620
H        1.20879000      22.84980000       8.39841000       0.03318510       0.05481020      -0.00683283
O       18.26271000       8.33796000      12.43011000       0.05389250      -0.04066000      -0.00406584
H       19.42141000       6.79513000      12.72191000      -0.03022300       0.03780640       0.00120986
H       19.04761000       9.11428000      10.93991000      -0.01501170       0.00196096       0.01005190
O       16.76085000      17.23318000      18.02914000      -0.06828780       0.06783010      -0.10774600
H       17.82551000      16.94538000      19.20023000       0.11730800      -0.02136400       0.12402100
H       16.00164000      15.66718000      17.92978000      -0.04332680      -0.04296610      -0.01691020
O        6.72892000       6.55139000      13.82459000      -0.00629960      -0.03436330      -0.00353347
H        8.18712000       5.45169000      14.37879000      -0.01316790       0.01810380      -0.00911503
H        5.80952000       5.50239000      12.52599000       0.01545190       0.01931180       0.02532580
O       10.92650000      22.84981000      12.00650000       0.00167148       0.02613530      -0.00089481
H       11.00050000       0.03530500      11.54900000      -0.00803203      -0.06317180       0.01809660
H       10.64120000      22.35801000      13.77420000       0.00553264       0.02425960      -0.02110550
O       15.03918000      22.54608000      24.35131000       0.02075790       0.00018681       0.06365650
H       14.75828000      21.92889000      22.74551000      -0.01142740      -0.01260530      -0.05785740
H       16.34618000      21.38863000       0.20492000      -0.00977204       0.02000470      -0.00375198
O       13.55850000      13.24509000      16.94875000      -0.06710110       0.04011210       0.04651300
H       11.55570000      13.51899000      16.84555000       0.05795300      -0.00608768       0.00449266
H       13.99850000      12.31699000      15.56400000       0.00834896      -0.03456290      -0.04746360
O       21.08430000      17.33820000      12.16080000       0.01672830       0.01066600      -0.03070460
H       20.63580000      18.98950000      13.03370000       0.00696266      -0.01887370      -0.01669450
H       21.73710000      17.58180000      10.36940000      -0.01472120       0.00310956       0.04744840
O       14.25370000      21.25290000      19.54383000       0.09767540      -0.01526030       0.00448730
H       12.60780000      20.95420000      19.08967000      -0.05100150      -0.02045350      -0.02061360
H       15.47600000      19.80630000      18.93710000      -0.04777920       0.01935400       0.01402370
O       23.03270000      21.79611000       6.98191000      -0.03645410       0.01024830      -0.04818340
H       21.17120000      22.35771000       6.76431000       0.03284210      -0.00302740       0.02052770
H       23.52740000      21.82011000       5.15021000       0.00050663       0.00439192       0.03017890
O       16.26031000       8.27193000       4.12626000      -0.00319429       0.00002875       0.00418426
H       15.93457000       9.78118000       3.09917000      -0.00065122      -0.01331160      -0.00072227
H       14.83754000       7.05971000       4.06152000       0.00336594       0.01957870       0.00194429
O       17.12550000       0.35359000      12.23220000      -0.04016340      -0.00155751       0.00600187
H       16.50940000       0.19639000      10.48690000       0.01307350      -0.00329110       0.01599360
H       15.53430000       0.35589000      13.28520000       0.03257550       0.00479281      -0.01521210
O       24.03726900      14.78020000      15.69961000      -0.04628960      -0.00975937      -0.03702760
H       22.88757000      13.15010000      16.57521000       0.04003200       0.06282140      -0.02987970
H       23.17751000      15.71240000      13.90801000       0.01606720      -0.04164270       0.07138920
O       19.69281000      19.16221000       0.62173200      -0.04636570      -0.01476330      -0.00219860
H       21.33291000      19.42141000       1.20623000       0.02559800       0.00860883       0.01786000
H       18.59261000      18.57091000       2.03093000       0.02668890       0.01042130      -0.00938369
O       22.03830000      11.52410000      19.07998000      -0.03651980       0.01115590      -0.03075410
H       23.53040000      11.13580000      19.99438000       0.00626130      -0.02453960       0.00700348
H       20.93890000      10.09390000      18.53368000       0.03087190       0.00671147       0.02042850
O        7.61069000      18.49351000       3.45025000      -0.04609040      -0.00451902       0.00684669
H        5.63089000      17.93311000       3.15991000       0.06378940       0.01526950       0.01697030
H        7.88029000      19.21881000       5.16454000      -0.01767310      -0.01209280      -0.02533110
O        8.02353000      18.98638000       9.01131000       0.08230200       0.03230970       0.01243510
H        9.21736000      17.70248000       8.48211000      -0.00866932      -0.01403180      -0.00592061
H        9.41726000      19.97948000       9.91491000      -0.03684980       0.00364601      -0.01189750
O        1.49742000      11.80321000       2.16734000       0.00397928       0.00558839      -0.00356676
H        0.49026700      11.17871000       3.59246000       0.00057602       0.00926115      -0.01785130
H        0.91683700      11.25761000       0.49531000      -0.00306458      -0.01121180       0.01870020
O       17.07341000      15.88942000       9.21012000       0.00541108      -0.00158324      -0.03691950
H       15.26408000      15.57559000       9.29829000       0.00345955      -0.00056962       0.01411450
H       18.04960000      16.12866000      10.68460000      -0.00308865       0.00388484       0.02440130
O       20.50139000       6.17188000      18.66860000      -0.01346360       0.04139720       0.11400000
H       21.44532000       5.09329000      19.82910000      -0.00541869       0.01199700       0.00362679
H       20.75335000       5.45473000      17.20240000       0.01702310      -0.04937100      -0.11877600
O        0.98221000       9.15509000      22.50279000      -0.01074010       0.02959750       0.01195850
H        0.31031000       7.51649000      22.40566000      -0.00971215      -0.02385000      -0.00294960
H        2.48441000       9.16239000      21.54813000       0.01934460      -0.00620764      -0.01841690
O       22.48730000       3.61586000      22.70571000      -0.01325630       0.03442120       0.02679180
H       22.61890000       3.75803000      24.53081000      -0.00743257       0.00902625      -0.00565239
H       23.48580000       2.20082000      22.50061000       0.02657790      -0.04529540      -0.02079350
O       15.73600000       3.12191000       0.35352000      -0.05347340      -0.00054224      -0.03389870
H       17.11670000       3.21641000       1.45342000       0.03140330      -0.00346409       0.02416280
H       15.17280000       1.40721000       0.05082000       0.01183730      -0.00895619       0.00790879
O        8.88219000      10.41970000      21.46310000      -0.18873600       0.05305430       0.05205240
H       10.37839000       9.87660000      21.19370000       0.15307400      -0.05959990      -0.00979332
H        8.04819000      10.05000000      23.16890000       0.04041790       0.01515080      -0.03759190
