192
TotEnergy=-1103.35003000 cutoff=-1.00000000 nneightol=1.20000000 pbc="T T T" Lattice="25.62948000       0.00000000       0.00000000      -0.00000100      25.62948000       0.00000000      -0.00000100      -0.00000100      25.62948000" Properties=species:S:1:pos:R:3:force:R:3:Z:I:1
O               5.93345000      1.80937000     23.23860000     -0.00115066      0.00553063     -0.00422071       8
H               6.93649000      3.17792000     22.57950000      0.00410631     -0.00223656      0.00131021       1
H               5.82164000      2.08324000     25.03470000      0.00281406     -0.00297917      0.00123586       1
O              16.48200000     11.60410000      6.27185000     -0.00706242      0.01189210     -0.01706440       8
H              17.33560000     12.66710000      7.44182000      0.00756355      0.00349528      0.01261380       1
H              16.57320000      9.92196000      6.86974000      0.00219160     -0.00937613      0.00231637       1
O              22.29660000     10.57420000     12.41940000     -0.01300980      0.00599893     -0.00201775       8
H              22.81630000      9.73706000     13.93900000      0.00659996      0.00241579      0.00703481       1
H              23.50800000     10.14410000     11.15820000      0.00406134     -0.00335993     -0.00738066       1
O              10.23850000     25.59650000     11.70200000      0.00472552      0.01501880      0.00030693       8
H              11.08770000     24.00180000     11.61230000      0.00321713     -0.00724901     -0.00120059       1
H               8.57608000     25.32140000     11.05650000     -0.00215311     -0.00519987     -0.00206051       1
O               2.29749000     25.51740000     12.09290000     -0.00380202      0.01296600      0.00266762       8
H               3.81652000     25.94250000     12.98180000     -0.00207078     -0.00248836      0.00353343       1
H               2.75660000     24.10350000     11.09510000      0.00544688     -0.01264580     -0.00417755       1
O              16.16760000      9.21279000     16.45570000      0.00601673      0.00606635     -0.00633571       8
H              15.25560000      9.79113000     17.89860000     -0.00006996     -0.00866950     -0.00565263       1
H              17.89710000      9.49499000     16.87460000      0.00593992     -0.00069594      0.00130343       1
O              23.59680000     11.28550000      1.71875000     -0.00760367     -0.00169830      0.00060719       8
H              24.06850000     12.16110000      3.22666000      0.00237013      0.00121499      0.00051384       1
H              23.41900000      9.55099000      2.22899000      0.00916593      0.00349153     -0.00575102       1
O               1.19895000     19.58100000     17.69100000     -0.00128241      0.00179453     -0.00315949       8
H               2.76946000     20.37880000     18.18830000     -0.00536455      0.00160584      0.00167855       1
H               1.56836000     18.55650000     16.23290000      0.00135020      0.00093012      0.00110472       1
O              14.92500000     11.71600000     21.14390000     -0.01167040     -0.00461595     -0.00767309       8
H              15.22220000     10.65820000     22.61380000     -0.01065650      0.00161525      0.00368190       1
H              16.46440000     12.85470000     20.83400000     -0.02329100     -0.00603141     -0.01496460       1
O               6.68981000     21.33500000      0.78148700      0.00003576     -0.00211586      0.00133979       8
H               7.54167000     20.76260000     -0.72578400      0.00174233      0.00088682     -0.00155097       1
H               7.10021000     20.07980000      2.05173000      0.00502471     -0.00043181     -0.00347044       1
O              22.47230000     23.43940000     14.25670000     -0.00051862     -0.00784865     -0.00224610       8
H              23.62680000     22.85350000     12.98180000      0.00234534      0.00287050      0.00249586       1
H              23.05730000     22.53490000     15.71700000      0.00573498      0.00186329      0.00095386       1
O              17.44090000     23.71710000     16.85270000      0.00319018      0.01470020      0.04064940       8
H              19.11270000     23.05280000     16.97170000     -0.00247463     -0.00227402     -0.01124010       1
H              16.61640000     23.17250000     15.39810000     -0.00689206     -0.01105110     -0.02994640       1
O              14.58150000     10.60450000      1.11576000     -0.02665020      0.00321031     -0.01223580       8
H              13.12030000     11.12330000      2.14084000      0.01063700     -0.01109330     -0.01336400       1
H              16.00490000     11.01100000      2.08239000      0.01994940      0.00611192      0.02068350       1
O               4.82344000     22.79220000     19.93280000     -0.01021850     -0.01175400     -0.00672349       8
H               5.00735000     23.96260000     21.27140000      0.00365945      0.01051760      0.01452140       1
H               6.49330000     22.66600000     19.27440000      0.00974836      0.00389815     -0.00533990       1
O               8.86853000     17.16910000      3.33399000     -0.00169115     -0.00111074     -0.00351640       8
H              10.66840000     17.28700000      3.10276000      0.00165528     -0.00071368      0.00239630       1
H               8.27199000     15.97580000      2.09695000      0.00248662     -0.00197058      0.00307786       1
O              11.26290000      4.07581000     20.71130000     -0.01709070     -0.00381675      0.02773000       8
H              12.73240000      3.13447000     21.12200000      0.00784476     -0.00233992     -0.00146503       1
H              11.68390000      4.83662000     19.13390000      0.00587335      0.00904577     -0.02749510       1
O              19.40330000     14.54720000     10.19620000     -0.00523051      0.00075448      0.00300574       8
H              19.07120000     15.97720000     11.26240000     -0.00514537     -0.00360027      0.00446329       1
H              20.07360000     13.20480000     11.26120000      0.00253583      0.00125641      0.00031559       1
O               7.92802000      6.18330000     13.59680000     -0.00535401     -0.01004370     -0.00150450       8
H               8.14770000      6.02173000     15.40400000      0.00198616      0.01426110      0.00014888       1
H               9.29026000      5.19048000     12.93530000      0.00109092     -0.00138021      0.00262996       1
O               4.71937000     17.98910000      6.83485000      0.01552160      0.02706560      0.00168749       8
H               6.38979000     17.40240000      6.43083000      0.00069605     -0.00026959     -0.00408139       1
H               3.63172000     16.61870000      6.58917000     -0.01536670     -0.02435870      0.00096596       1
O              16.94440000     24.13250000      3.07115000     -0.04404000      0.10442300     -0.00657805       8
H              16.03890000     26.11750000      2.67888000      0.03821700     -0.09804060      0.01151250       1
H              17.52410000     23.54320000      1.45254000      0.00197711     -0.00490762      0.00193746       1
O              23.40200000      6.23512000      4.03071000      0.00820335     -0.00309328     -0.00210697       8
H              23.05820000      4.50651000      4.43174000     -0.00109991     -0.00227750      0.00106709       1
H              21.83530000      7.08990000      4.24886000     -0.01338510     -0.00214185      0.00609643       1
O              17.42920000      2.14623000     21.09520000      0.00521769      0.00692349      0.01942280       8
H              19.19110000      2.62549000     21.06810000     -0.00370842      0.00034152     -0.00326722       1
H              17.17800000      1.04356000     19.70870000     -0.00211882     -0.00872580     -0.01810670       1
O               5.12158000     10.02120000     22.56050000      0.00910873      0.00213868     -0.00619359       8
H               5.35705000     11.78960000     22.84380000     -0.00558110      0.00030348      0.00537513       1
H               3.76078000      9.41471000     23.58960000     -0.00399931      0.00098773      0.00592320       1
O              15.68090000      3.15048000     10.72250000     -0.00099978      0.00674627      0.00077476       8
H              13.92500000      2.56109000     10.57010000      0.00036809     -0.00268456      0.00947290       1
H              16.83520000      1.68430000     10.59490000     -0.00560104      0.00153170     -0.00283974       1
O               5.71785000      5.88585000      3.56188000     -0.00345554      0.00144955      0.00410431       8
H               5.64643000      4.17243000      4.16831000      0.00576459     -0.00119245     -0.00800927       1
H               7.00488000      6.61991000      4.61147000     -0.00386502      0.00245377      0.00532450       1
O              24.24400000     14.96410000     19.17990000      0.00185267      0.00073353     -0.03211720       8
H              23.08990000     16.30300000     18.79110000      0.01211800      0.00332515      0.00174518       1
H              23.96750000     14.46060000     20.84010000     -0.00525641     -0.00362672      0.03736330       1
O              19.45530000     21.10780000     24.85220000      0.00039943      0.00661088      0.00539026       8
H              21.25200000     21.24620000     25.03360000      0.00007955      0.00410080      0.00247046       1
H              19.01880000     22.50430000     23.77820000      0.00317584     -0.00676505     -0.00947510       1
O              22.36090000      5.49313000     20.92990000      0.00439947     -0.00471018     -0.00345966       8
H              23.61850000      4.26415000     20.37940000     -0.00188807      0.00373999      0.00387957       1
H              23.08100000      6.29779000     22.38650000     -0.00009623     -0.00128890      0.00096316       1
O               5.99775000     21.15280000     11.07230000     -0.00423650      0.00200436     -0.00205664       8
H               6.16232000     19.73800000     12.21070000      0.00289551      0.00409628      0.00062117       1
H               5.13896000     20.42700000      9.63196000      0.00335702     -0.00356207      0.00041949       1
O              17.36490000      5.96358000      5.24142000      0.01730620      0.01793460     -0.00274557       8
H              16.92530000      5.43618000      6.87825000     -0.00596049     -0.01072830      0.01518690       1
H              16.58710000      4.85090000      4.07537000     -0.01064560     -0.00583217     -0.01174220       1
O               9.39959000     25.47970000     17.83870000     -0.00577747      0.00250670     -0.00444171       8
H               9.36677000     27.20820000     18.46870000      0.00787763     -0.01016340     -0.00089197       1
H               9.61448000     25.64800000     16.03460000      0.00371792      0.00144538      0.00448112       1
O               7.77949000     16.29080000     13.58150000     -0.00029747      0.00964935      0.01383540       8
H               8.24908000     16.20480000     11.84530000      0.00069533     -0.00440777     -0.00722750       1
H               6.07199000     15.70180000     13.77130000     -0.00308791     -0.00542005     -0.00659092       1
O               2.58096000      6.12646000     10.91170000      0.00975540      0.01295040      0.01444340       8
H               4.04282000      5.66113000     11.92080000     -0.00406018      0.00273635     -0.00125606       1
H               2.18539000      4.74042000      9.86815000     -0.00193732     -0.02050670     -0.00493939       1
O              16.05140000     19.86900000     20.91480000      0.01743900     -0.00987986     -0.01435120       8
H              14.91210000     20.44330000     22.15210000     -0.01714380      0.00431932      0.01331770       1
H              15.56870000     20.63730000     19.35270000     -0.00031691      0.00513741      0.00102581       1
O               8.99622000     10.82740000      1.61424000      0.00396590      0.00124081     -0.00013724       8
H               9.26060000     10.91140000     -0.17515500     -0.00301728     -0.00075732     -0.00409350       1
H               8.08876000      9.26775000      1.80951000     -0.00209439      0.00148464     -0.00054252       1
O              10.97370000     14.93780000      9.11144000      0.00058751      0.00171576      0.00488310       8
H              12.26050000     14.99700000      7.83975000     -0.00436795     -0.00171748     -0.00266346       1
H              11.42360000     13.50470000     10.14800000      0.00082300     -0.00259989     -0.00339231       1
O               1.42260000      2.34702000     19.91080000     -0.00627563      0.00735491     -0.00008618       8
H               1.88307000      0.60139700     20.07480000      0.00020147      0.00340061     -0.00084461       1
H               2.82586000      3.23455000     20.63010000      0.00518381     -0.00382125     -0.00100769       1
O              23.34860000     26.10970000      8.13696000     -0.00416182      0.00634534     -0.00869763       8
H              23.39980000     24.74380000      6.94387000      0.00411314     -0.00394636      0.00000172       1
H              23.05080000     25.24560000      9.69209000      0.00482324      0.00147743      0.00590980       1
O              15.62950000     17.12770000     13.69590000      0.00062053     -0.00292530      0.00017317       8
H              14.59960000     17.67270000     15.08850000      0.00185154      0.00062858     -0.00166379       1
H              15.11420000     15.42040000     13.37540000     -0.00210658     -0.00175127     -0.00058690       1
O              23.92330000     23.40380000     21.79220000     -0.00325885     -0.00450810      0.01288610       8
H              24.96040000     22.64200000     23.10420000      0.00213500      0.00145959     -0.00445117       1
H              24.91840000     23.22400000     20.30800000      0.00354461     -0.00526507     -0.00746633       1
O               6.85196000      0.71441800      2.85577000     -0.00351634      0.00036544      0.00627654       8
H               8.39669000     -0.03330200      2.25988000     -0.00282804      0.00692230      0.00240701       1
H               6.07352000     -0.62606400      3.76820000     -0.00512384     -0.00661180     -0.00196896       1
O              12.91110000     24.17450000     24.56190000      0.01992180      0.00091390     -0.00054444       8
H              13.94310000     25.06730000     23.35050000     -0.00601947     -0.00075573      0.00087692       1
H              11.19590000     24.58560000     24.24690000     -0.01247870     -0.00333164     -0.01319010       1
O              15.70060000      5.29922000     25.36490000      0.00841442     -0.00801868     -0.00029026       8
H              16.11580000      7.03917000     25.61420000     -0.00171900      0.00203368     -0.00113809       1
H              16.75970000      4.59404000     24.05460000     -0.00606627      0.00500494      0.00091157       1
O              14.70140000     17.06790000      4.22360000     -0.00276674     -0.00512691      0.00266805       8
H              15.16470000     17.42300000      5.94105000      0.00165918      0.00185499     -0.00383444       1
H              15.33420000     15.39280000      3.90747000     -0.00026243      0.00197118      0.00169773       1
O               3.71359000     12.89910000      8.36080000      0.00839667      0.00698006     -0.00246919       8
H               3.06148000     11.23690000      8.02908000     -0.00306350      0.00175800     -0.00498598       1
H               5.44975000     12.87900000      7.80242000     -0.00523022     -0.00480948      0.00439849       1
O              10.34130000     20.63450000     21.65150000     -0.00372567     -0.00258939      0.00591388       8
H              10.45030000     19.27040000     20.44010000      0.00043654      0.00005350     -0.00072575       1
H              11.05150000     22.13820000     20.94550000     -0.00319798     -0.00291884     -0.00878594       1
O              23.50710000     15.97080000      7.60186000      0.00772632      0.00660418     -0.00489196       8
H              22.04560000     16.12870000      8.68178000      0.00050530     -0.00582293     -0.00425535       1
H              23.80760000     14.19240000      7.54464000      0.00373003     -0.00347528      0.00119338       1
O               1.68830000     20.73260000     -0.15034600     -0.00477697      0.00262376     -0.00132265       8
H               3.48894000     20.92020000      0.22838000     -0.00147969      0.00064094     -0.00187586       1
H               1.18496000     19.07490000      0.37259500     -0.00228172      0.00051737      0.00313730       1
O               8.66222000      9.72513000     18.14700000      0.02366140      0.00568665      0.00737399       8
H               7.57474000     10.06200000     19.57920000      0.00905026     -0.00384373     -0.00669048       1
H              13.10700000     11.03540000     19.89600000      0.01114640      0.01514500      0.02149380       1
O              14.37020000     21.98730000     11.25820000     -0.01775580      0.00623852      0.02010970       8
H              14.24710000     20.23770000     10.87170000      0.00375842     -0.00782358     -0.00069067       1
H              15.54020000     22.76420000     10.17270000      0.01688590      0.00317228     -0.01777160       1
O              23.09910000     16.86770000     25.11970000     -0.00226998     -0.00122901     -0.00628345       8
H              22.28760000     17.74200000     23.75100000      0.00106719      0.00268466      0.00483833       1
H              21.73840000     16.47850000     26.25730000      0.00290075     -0.00058909     -0.00024398       1
O               1.52695000      7.04651000     24.93860000     -0.00901936     -0.00182485     -0.01020760       8
H               2.05314000      6.34930000     26.52270000      0.00337604     -0.00192137      0.00140613       1
H               1.36709000      5.67561000     23.75190000      0.00534887      0.00008871      0.00903731       1
O               0.01124000      9.23521000      7.88076000      0.00170854     -0.00410401      0.00043632       8
H              -0.08333600      7.94293000      6.57472000     -0.00434820      0.00786185      0.00548963       1
H               0.92467300      8.41420000      9.26336000     -0.00055258     -0.00082348     -0.00517884       1
O               7.65341000      8.56181000      8.59410000     -0.00544939     -0.00146041     -0.01112480       8
H               6.30351000      8.51677000      9.80128000      0.00098808     -0.00355034      0.00114173       1
H               8.98795000      9.37380000      9.47850000      0.00747749      0.00499224      0.00544507       1
O              18.25790000     24.97550000      7.93208000     -0.00871823      0.01129530     -0.00162392       8
H              17.88810000     24.59560000      6.13160000     -0.00029978     -0.00115019      0.00924874       1
H              19.53720000     26.28400000      7.85259000      0.00568751     -0.01128620     -0.00164823       1
O              18.67400000     14.93990000     19.30310000     -0.00551920     -0.00867051      0.00141508       8
H              19.67530000     14.40470000     17.88300000     -0.00191495     -0.00203004      0.00385270       1
H              19.72890000     16.01480000     20.30960000     -0.00882836      0.00143705      0.00103910       1
O              -0.00558000     21.00190000      7.37332000      0.00234748      0.00055451     -0.00349391       8
H               1.47108000     21.47250000      6.41563000     -0.00472383     -0.00632747      0.00331976       1
H              -0.20498500     19.19390000      7.11757000     -0.00172303      0.00726959      0.00240516       1
O               2.12711000     15.53790000     13.51660000     -0.00500205      0.00216077      0.00041291       8
H               1.36488000     14.29380000     14.59370000      0.00118681     -0.00353320     -0.00078274       1
H               1.37730000     15.29300000     11.86840000      0.00728213     -0.00073507      0.00426007       1
O               3.89038000     16.00880000     22.83490000      0.00351436     -0.00273293      0.00577224       8
H               3.40236000     15.12820000     21.34510000     -0.00128443     -0.00194074     -0.00796338       1
H               2.74938000     17.40660000     22.90230000      0.00001865      0.00601693     -0.00156021       1
O              10.28640000     16.01400000     18.69350000      0.01352620      0.01176090      0.01473190       8
H               9.22139000     16.27650000     17.28360000     -0.01439340     -0.00209485     -0.01689730       1
H              11.69140000     15.14280000     17.98280000      0.00057644     -0.00655315      0.00124200       1
O              12.69250000     10.17890000     11.57920000     -0.00656733     -0.00355507     -0.00372400       8
H              11.84950000      9.93760000     13.18100000      0.00215721     -0.00362232      0.00338302       1
H              12.86180000      8.48624000     10.92550000      0.00044540      0.00781757      0.00599656       1
O              25.02320000     10.03490000     17.08910000     -0.00477969      0.00456221      0.00193935       8
H              25.13730000      8.52936000     18.08530000      0.00052910     -0.00043345      0.00181917       1
H              24.70800000     11.42460000     18.24370000      0.00288473     -0.00737939     -0.00881755       1
O              11.72880000      2.61605000      1.78409000     -0.00251508      0.00185779      0.00560079       8
H              11.85580000      4.05914000      0.70029100      0.00224119      0.00481549      0.00115920       1
H              12.10800000      1.24657000      0.65287800      0.00841192     -0.00114773      0.00575080       1
O              13.47520000      4.46689000     15.95260000      0.00363249     -0.00826074     -0.02287230       8
H              14.80060000      4.87036000     17.10850000      0.00550984      0.00290663     -0.00478930       1
H              15.83870000      4.19721000     12.33630000     -0.01582050     -0.01310740      0.01543750       1
