192
Lattice="24.30679 0.0 0.0 0.0 24.30679 0.0 0.0 0.0 24.30679" Properties=species:S:1:pos:R:3:force:R:3 TotEnergy=-1103.84604 cutoff=-1.0 nneightol=1.2 pbc="T T T"
O        7.10866000       2.04830000       3.08446000      -0.01319210       0.00480069      -0.00624240
H        5.66970000       3.01762000       2.43730000       0.02077060      -0.00301742       0.00939284
H        8.40357000       2.03654000       1.75518000      -0.00297982       0.00051240      -0.00172701
O        2.56317000      13.44440000       9.11480000       0.00404248       0.00093396      -0.00010093
H        1.71998000      13.15430000      10.70190000       0.00021932      -0.00429624       0.00266354
H        1.27569000      13.21850000       7.83577000       0.00063970       0.00358191      -0.00086157
O       19.04560000      12.61070000       0.53471000      -0.00435660      -0.00838956      -0.01866640
H       17.71390000      12.06780000      23.66940000       0.01173980       0.00964349       0.01601410
H       20.61100000      12.37290000      23.93760000      -0.00458960      -0.00031975       0.00045965
O       19.20730000      15.62740000      18.93430000       0.00752569      -0.03436000      -0.00405609
H       19.17500000      13.90100000      19.63660000      -0.00076419       0.02655660      -0.00473311
H       19.33310000      15.25460000      17.12030000      -0.00000038       0.00107389       0.00578737
O        8.56434000       3.92585000      19.19870000      -0.00472375      -0.00170789      -0.02066180
H        8.57669000       2.58274000      17.89370000      -0.00071215       0.00719958       0.02185230
H        7.59926000       5.23715000      18.35220000       0.00621199      -0.00898180       0.00870034
O        3.94088000       0.39857500       6.54694000      -0.00706920       0.00204892       0.00205702
H        4.75147000       0.43159800       4.89454000       0.00538828      -0.00247725       0.01257570
H        2.18103000       0.70276800       6.12781000       0.00464365       0.00134267      -0.00300554
O       17.43630000      19.82500000       2.67737000      -0.00162044       0.00672405      -0.00096061
H       15.98380000      19.23340000       1.74753000       0.00970380      -0.00207345      -0.00571340
H       18.25010000      21.06410000       1.58637000      -0.00106351       0.00116248      -0.00557215
O       10.35910000      13.67780000       3.72656000       0.00021413      -0.00419153      -0.00257944
H       10.56590000      12.11440000       4.68479000      -0.00255812      -0.00214249      -0.00629101
H       10.28400000      14.94960000       5.02214000       0.00372907       0.00111461       0.00021124
O       19.73510000      13.24040000      14.32670000      -0.00113587      -0.03442950      -0.01081240
H       19.36040000      11.38870000      14.41600000       0.00051276       0.02116040       0.00024898
H       19.32830000      13.60700000      12.57720000       0.00005841       0.00786577       0.01477660
O       16.92660000       0.47823000      11.79580000      -0.02036790      -0.01207320      -0.00216108
H       16.17720000      23.33478100      12.68320000       0.00977500       0.01430510      -0.01049390
H       15.68260000       0.83072000      10.46560000       0.01945250       0.00114422       0.00921926
O        6.77708000       1.38746000      11.96180000       0.00146733      -0.00608256      -0.00167247
H        6.27384000       2.67066000      13.17850000      -0.00015059       0.00593530      -0.00193468
H        5.29502000       1.08219000      10.95800000       0.00315807      -0.00091077      -0.00326756
O       18.01330000      17.06050000      11.37320000      -0.00397675       0.00443951       0.00436652
H       18.01250000      16.44840000       9.67316000      -0.01070450       0.00537907      -0.01076980
H       16.48620000      18.04140000      11.63800000       0.01062000      -0.00345109      -0.00346995
O        5.81644000      18.53590000      19.19220000       0.01397320       0.00187775      -0.00081417
H        6.06350000      16.86520000      18.46210000      -0.00266784       0.00196243       0.00621220
H        7.38276000      18.78520000      20.11190000      -0.00980702      -0.00137706      -0.00341016
O        9.91071000      23.66828400       7.31231000       0.00649388      -0.01620690       0.00956549
H        9.36709000      23.69038500       9.04273000      -0.00226661       0.00200986      -0.00154644
H        9.01221000       0.67030200       6.48638000      -0.01097760       0.01362500      -0.00649497
O        8.39752000      23.50740000      16.40910000      -0.00367573      -0.00175264      -0.00950731
H        8.09997000      24.07120000      14.66940000       0.00023786      -0.00484020       0.00563289
H        7.02246000      22.34220000      16.69440000       0.00127882       0.00147038       0.00414278
O        3.28622000       5.79248000       1.88347000      -0.01229830       0.00213383      -0.01068410
H        3.02545000       4.59824000       0.49603700      -0.00202396       0.00689056       0.00365038
H        1.85856000       6.96074000       1.78897000       0.00739200      -0.01002870       0.00803146
O       17.78590000       6.89547000       4.59793000      -0.00484024       0.01092230       0.00691796
H       17.05420000       8.57846000       4.79443000      -0.00007352      -0.01115090       0.00259684
H       16.38770000       5.73347000       4.66709000       0.00374434       0.00158750      -0.00478873
O       22.53300000      21.36380000      17.51410000      -0.00263282      -0.00540487      -0.00990194
H       22.71990000      20.13480000      16.13190000       0.00211362       0.01042470       0.00151275
H       20.71510000      21.60240000      17.63710000       0.00462961      -0.00281049       0.00703594
O        2.11944000      22.56490000      20.70540000      -0.02268670      -0.02461760      -0.01640820
H        3.15777000      21.07330000      20.91730000      -0.00097823       0.00781344      -0.00186246
H        0.62867300      21.95000000      19.61840000       0.02558220       0.02007190       0.01763890
O       13.41020000      18.93590000      23.20020000       0.00615908       0.00578103       0.00772130
H       13.07720000      19.83780000       0.43891000      -0.01660640      -0.00330865      -0.00495910
H       12.87020000      17.19120000      23.40310000       0.00452899       0.00096519       0.00108949
O       17.28730000       5.88778000      22.19650000      -0.01361730       0.00246362       0.00197797
H       15.50120000       6.36647000      22.13330000       0.01180090       0.00394974      -0.00317687
H       18.11360000       7.51089000      22.31280000       0.00327599      -0.00738885       0.00243240
O        3.62776000       2.97521000      21.86390000       0.00823226      -0.00482610       0.00115173
H        3.55231000       1.20840000      21.25880000      -0.00692604       0.00828448       0.00358165
H        5.39104000       3.44994000      21.80510000      -0.00496064      -0.00482144      -0.00874549
O       19.31460000      23.47940000      23.83200000      -0.00032632      -0.00082883       0.00266453
H       19.25380000      22.87740000      22.10640000      -0.00467669      -0.00106855       0.00349166
H       20.40540000       0.63731000      23.85880000       0.00310704       0.00116278      -0.00488544
O       23.31270000      13.25110000       5.34002000       0.00199698      -0.00210366      -0.00242464
H       21.59500000      12.85430000       5.77595000      -0.00709690       0.00247419       0.00148028
H       23.27230000      14.85170000       4.49840000      -0.00164618       0.00000406      -0.00109124
O       17.83960000      20.47070000      19.44590000      -0.00063492      -0.00353834      -0.00411233
H       16.10710000      20.11800000      18.99340000       0.00612854       0.00971426      -0.00226102
H       18.56740000      18.78800000      19.47260000      -0.00014133       0.00095776       0.00569504
O       13.97090000      20.42760000      12.87390000      -0.04459770       0.00592329       0.01610170
H       12.67470000      21.25340000      14.00280000       0.03468810      -0.01631400      -0.01587910
H       12.87800000      19.06650000      12.23070000       0.00400613       0.00762954       0.00214582
O       22.60330000       7.93912000       2.49073000       0.04120990       0.04846910      -0.03945020
H       21.27390000       7.53143000       3.49656000      -0.05293070      -0.02855420       0.03986260
H       22.30630000       9.77265000       2.30259000       0.01509310      -0.02378770      -0.00312435
O       10.65520000       1.63058000      23.81340000       0.02453020       0.02949680       0.00724010
H       10.28330000       2.90868000      22.52700000       0.00044836      -0.01418980       0.00498661
H       12.20740000       2.32789000       0.39991000      -0.02289240      -0.01846550      -0.01603080
O        9.96838000      20.86560000       2.86225000      -0.00160812      -0.00468195      -0.00195266
H        9.80990000      21.19420000       4.64788000       0.00281358       0.01055840      -0.00134684
H        8.98634000      22.16860000       2.06254000       0.00231978      -0.00205960       0.00094430
O        7.89354000      13.54760000      18.66440000       0.01062560      -0.00183096      -0.01452770
H        9.28739000      14.23370000      17.64950000      -0.00690290      -0.00493450       0.01543700
H        7.19917000      12.16180000      17.62870000      -0.00296589       0.01079490       0.00579280
O        0.70882500      11.58960000      13.67240000       0.00463031       0.00158717      -0.00093806
H        0.20238400      10.03670000      12.85730000      -0.00143385      -0.00083371       0.00591442
H       23.53152000      12.47790000      14.26160000      -0.00137970      -0.00279095      -0.00098363
O        9.97331000      17.08070000      12.66090000       0.00604372      -0.00143811       0.00454415
H       10.06790000      15.29300000      12.33000000      -0.00317685      -0.00210298       0.00507717
H        8.44661000      17.72910000      11.92150000      -0.00496037       0.00055194       0.00116426
O       15.79920000      16.87840000       6.29014000      -0.00079926       0.01133090      -0.00141108
H       14.00010000      16.98060000       6.60058000       0.00229154      -0.00149327       0.00253953
H       16.22460000      18.45860000       5.42183000       0.00053759      -0.01741690       0.00481251
O       15.27760000       2.97828000       1.70401000      -0.00348892      -0.00221354       0.00310134
H       16.37650000       1.58118000       2.06257000       0.00276590      -0.00392530      -0.01221950
H       16.12560000       3.91924000       0.35640400       0.00762807       0.00259695       0.00286414
O        1.21617000       6.05046000      12.02250000       0.00520947       0.00150217      -0.01735340
H        2.48369000       6.54715000      10.74860000      -0.01155970       0.00149062       0.00522880
H        0.09680900       4.97033000      11.00680000       0.00374437       0.00666235       0.00960180
O       22.46860000       2.71361000       9.39522000       0.00461683      -0.00024481       0.00846025
H       22.71090000       1.36692000      10.57900000      -0.00349614      -0.00409506      -0.00065680
H       22.72220000       2.00695000       7.72638000       0.00017258      -0.00267126      -0.00413527
O       12.72870000      20.91710000      18.56380000      -0.00134890      -0.00081718      -0.00922328
H       11.13580000      21.71050000      18.22030000      -0.00079913       0.00490265      -0.00299437
H       13.17540000      21.32930000      20.26170000      -0.00677335      -0.00007820       0.01014170
O       14.66260000       1.46331000       6.74550000      -0.00611943      -0.01664230      -0.00367916
H       14.72490000       1.90311000       4.97743000      -0.00295669       0.00395795       0.00928439
H       13.42370000       0.08744700       6.80105000       0.00387010       0.01485690       0.00118614
O        5.61651000      10.26330000      15.52900000       0.00954233       0.01220830      -0.02185320
H        4.11340000      11.20150000      14.95810000       0.00356698      -0.01247640       0.00442602
H        6.91944000      10.48820000      14.16250000      -0.01759680       0.00359163       0.01909100
O       22.59250000      18.70040000      12.99360000      -0.00453522      -0.00252481      -0.03376190
H       20.87420000      18.25360000      12.36380000       0.01908730       0.00309970       0.01043750
H       23.58220000      18.97100000      11.41830000      -0.01096460       0.00191314       0.02774510
O       10.65760000      17.42820000       7.31767000      -0.04820280      -0.00441771       0.02461810
H        9.45345000      18.03080000       6.08184000       0.00824259       0.00363209      -0.00174360
H        9.38600000      17.10850000       8.73393000       0.03537350       0.00732933      -0.03058230
O        8.21310000       7.52530000       0.49809400      -0.01092940       0.00846088      -0.00743230
H        7.86707000       9.30696000       0.85878700       0.00184860      -0.01068350      -0.00470736
H        6.61281000       6.98181000      24.06419400       0.01291960       0.00482995       0.01411280
O        5.43038000       5.32032000      14.72790000       0.00027347      -0.00255531       0.00699351
H        3.65246000       5.40627000      14.18770000       0.00500258       0.00075327      -0.00013748
H        5.75332000       6.97720000      15.46450000      -0.00785371       0.00045691      -0.00837210
O        5.76502000      17.98680000       9.65285000      -0.00752418       0.00250191       0.00517328
H        4.78495000      16.80660000      10.64580000      -0.00018641      -0.00207818      -0.01080380
H        4.46107000      18.85630000       8.68849000       0.00556244      -0.00271411       0.00525209
O       12.84880000       8.63030000      22.33170000      -0.00938784      -0.01626050      -0.01814260
H       11.47220000       7.47890000      22.81640000       0.00442620       0.01930060      -0.00053214
H       12.84510000       8.65313000      20.47470000       0.00088358       0.00079877       0.01050520
O       17.81140000      12.03060000       5.45874000       0.00824702       0.00154668      -0.01749160
H       17.15040000      13.69930000       4.99182000      -0.00170165      -0.00804208       0.01042630
H       18.48790000      11.45720000       3.82365000      -0.00683142       0.01341720       0.00891966
O       22.59850000       3.30530000      23.61430000       0.00534831       0.02419130       0.01235780
H       22.42740000       5.03583000       0.01951000      -0.00005702      -0.02150890      -0.01043010
H       24.26670000       3.23039000      22.85880000      -0.00713412      -0.00173380       0.00131744
O       18.46620000       5.75884000       9.87432000      -0.00031818       0.00126144      -0.01145500
H       19.59900000       4.31688000       9.74343000      -0.00162746       0.00205985       0.00414523
H       18.67260000       6.55916000       8.23260000      -0.00652254      -0.00149521       0.00733688
O       14.11230000       9.65196000      16.76110000       0.00403552       0.00723550       0.00526974
H       14.32460000      11.44060000      17.09040000      -0.00002712      -0.00459323       0.00077708
H       15.70670000       9.09969000      15.94520000      -0.01274230      -0.00075024       0.00457611
O       13.38820000      13.86770000      23.72260000      -0.01060080      -0.02106630       0.00169548
H       12.92390000      12.23690000      22.94940000       0.00370317       0.01606780       0.00695515
H       12.54280000      13.78180000       1.06611000       0.00460510      -0.00017286      -0.00474522
O       23.52690000       0.77213800       4.72646000       0.00118854      -0.00678502       0.01000040
H       22.29960000      23.76133300       4.43324000       0.00070814       0.00542757       0.00210065
H       23.44000000       2.00727000       3.44107000      -0.00321773       0.00848895      -0.01985430
O        3.83618000       7.45414000       7.75496000      -0.00112996      -0.00098985       0.00734095
H        4.49705000       6.21416000       6.62754000       0.00023362      -0.00070637      -0.00772143
H        3.91187000       9.07690000       6.95997000       0.00008778       0.00107985      -0.00013540
O        1.05895000      20.77300000       8.65074000       0.00044920      -0.00504980       0.00399293
H       24.12905500      20.77260000       7.33420000      -0.00749529      -0.00233895      -0.00230331
H        2.01150000      22.27910000       8.33645000       0.00950164       0.00302701      -0.00188536
O       10.57250000       9.04772000       5.71526000       0.00378156      -0.00384806      -0.00028583
H        9.42910000       7.86460000       4.96843000      -0.00226738      -0.00216611      -0.00541284
H       10.85560000       8.41143000       7.38388000      -0.00321547       0.00017736       0.00529064
O       13.20130000      15.27120000      17.73600000       0.00257988       0.00037530      -0.00370908
H       14.07260000      15.94550000      16.28690000      -0.00457198       0.00146737       0.00419954
H       13.36370000      16.57890000      19.00280000      -0.00202221      -0.00510417      -0.00477744
O        6.20109000      12.93480000      24.24580000       0.03767710       0.00153912      -0.01905280
H        6.84891000      12.80180000      22.47850000      -0.00716170       0.00813330       0.02543420
H        7.67630000      13.64290000       0.86521000      -0.02164550      -0.00918991      -0.00708258
O       18.20650000       8.15550000      14.21290000       0.00358361      -0.00015297      -0.00038859
H       19.66310000       7.35914000      14.95670000      -0.00368797      -0.00542133       0.00249482
H       17.90550000       7.17087000      12.64780000       0.00764734       0.00805164       0.00107937
O       10.02200000       6.58752000      10.79310000       0.00297637       0.00013756       0.00560144
H        8.75553000       5.80221000      11.85720000       0.00223097       0.00130220      -0.00753446
H       11.46140000       5.48197000      10.79240000      -0.00206837      -0.00216066       0.00208007
O       20.31790000      21.66900000       6.67298000      -0.02972070      -0.00613336       0.02503260
H       19.48600000      21.64930000       8.38044000       0.01718790       0.00517739      -0.03484700
H       18.94120000      21.35110000       5.47123000       0.01003330      -0.00299243       0.01117650
O       20.28750000       3.15155000      15.45730000       0.00004754      -0.00695941      -0.01172550
H       19.18620000       2.95725000      13.99650000       0.00234440      -0.00465160       0.01030500
H       21.01510000       1.49217000      15.68260000      -0.00193048       0.00695187       0.00151624
O       10.11160000      11.46520000      13.44680000       0.00397809      -0.02129890       0.00566053
H       10.59680000       9.92290000      12.52500000      -0.00334239       0.01291690       0.00230645
H       10.66600000      11.04010000      15.16410000       0.00439058       0.00596897      -0.01714720
O        0.63407500      16.22250000      18.92180000       0.00223247      -0.00996355       0.00616224
H       23.18328000      16.53010000      19.24840000      -0.00384504       0.00433669      -0.00435562
H        1.50083000      17.78890000      19.14800000      -0.00012635       0.00033207      -0.00001974
O       21.55770000       9.00279000      20.95590000       0.02121830      -0.01183230       0.00143207
H       21.68930000       7.25285000      20.40140000      -0.00150372       0.01263430       0.00282370
H       23.25710000       9.48022000      21.60690000      -0.02336190       0.00047482      -0.01018300
O        0.92337200      12.24960000      22.76080000       0.00548230      -0.00014279      -0.00624577
H        0.79260400      13.79110000      21.78220000      -0.00437947       0.00076411      -0.00400739
H        2.67923000      11.86200000      22.46960000      -0.00357383      -0.00094150       0.01188800
