192
Lattice="24.14986 0.0 0.0 0.0 24.14986 0.0 0.0 0.0 24.14986" Properties=species:S:1:pos:R:3:force:R:3 TotEnergy=-1103.43332 cutoff=-1.0 nneightol=1.2 pbc="T T T"
O       21.83160000      24.02167900      20.04642000       0.00769279      -0.01979450      -0.07030840
H       22.66530000       0.59738500      21.36482000       0.02189280       0.02109910       0.05799030
H       20.14180000      23.48151000      20.10522000      -0.02489320      -0.00356138       0.00890525
O        0.91018000      23.39834000       4.64392000       0.01537220      -0.04040780       0.01630550
H        2.13798000      21.94444000       5.65144000      -0.03042800       0.05451580      -0.06409310
H        0.95748000      23.30984000       2.73056000       0.00764368      -0.02152880       0.04306630
O       11.54230000       0.29670300      13.89590000       0.02319230       0.09835470      -0.02657350
H       13.24370000      24.04849200      13.65610000       0.04994530      -0.00663673      -0.01039210
H       10.96750000      23.08457000      14.62660000      -0.06022540      -0.10347100       0.04926560
O       18.42102000      16.66092000       0.67348800      -0.01330750       0.03847440       0.00107838
H       19.19119000      17.83766000      23.60635500       0.00595651      -0.01913580       0.00682904
H       17.29539000      17.88064000       1.55764000       0.00864699      -0.01988890      -0.00992668
O        8.37081000       4.74524000      20.21630000       0.02859340       0.03578320      -0.00925297
H        8.73023000       6.59204000      20.68980000      -0.00904667      -0.04493200      -0.01000860
H        9.85864000       4.37944000      19.04690000      -0.02425660       0.01347940       0.02338530
O       21.52019000      12.29690000      11.86120000      -0.07569250      -0.04634700      -0.01102760
H       20.92941000      11.37270000      10.31380000       0.01371230       0.01776180       0.02463470
H       23.15105600      12.82630000      11.69570000       0.05618870       0.03015230      -0.01748810
O       20.20244000       1.01964000      11.28810000      -0.01900580      -0.00022527      -0.02802010
H       21.37114000       1.43574000      12.57720000       0.02211310       0.00085174      -0.00324215
H       20.65364000       0.38734000       9.21112000      -0.00281911      -0.00374885       0.04792850
O       22.66439000      19.68382000      12.26800000      -0.01592330       0.03133140       0.15128300
H       23.48351600      18.62362000      11.35090000       0.07421210      -0.09422310      -0.09135640
H       21.76598000      20.85512000      11.50310000      -0.05339790       0.06804890      -0.05671460
O        5.05384000      13.44852000      18.16740000       0.01113540      -0.12675600       0.01917570
H        6.24414000      12.37942000      19.30000000      -0.01856660       0.04106980      -0.03468960
H        5.28804000      15.10712000      18.35480000       0.02390080       0.08898390       0.01479740
O        7.87343000      20.15952000      23.06092000       0.05453480      -0.01622850       0.01601460
H        9.74382000      19.97912000      23.62362000      -0.05108010       0.00456969      -0.01795280
H        6.97669000      18.89212000      24.10442000       0.00629883       0.00682068      -0.00662668
O       12.46406000       2.66007000       5.65961000       0.07268460       0.07180320      -0.02030340
H       10.79396000       2.74605000       5.21638000      -0.06271800      -0.01201570      -0.00989617
H       13.05876000       4.35467000       4.72010000      -0.00845108      -0.06838360       0.03047170
O       14.74514000       5.68984000       1.52868000       0.01821830       0.07391300       0.04277720
H       15.52177000       4.96244000       0.06188000       0.00702704       0.00267284      -0.00550797
H       15.67276000       7.42014000       2.11418000      -0.02695020      -0.07811570      -0.03235630
O       14.07910000      19.27962000       9.69506000       0.01979150      -0.04688910      -0.01701380
H       15.21320000      17.54592000       9.19236000      -0.05314860       0.04873410       0.01187410
H       12.18910000      19.22022000       9.54026000       0.03514610      -0.01344930       0.00111602
O        1.14004000      15.65740000      10.63714000      -0.06349710       0.03147610      -0.06082790
H        1.05524000      15.02660000       8.89844000       0.00597580       0.00567015       0.01315740
H        2.38824000      14.83610000      11.47484000       0.05856080      -0.03396900       0.03861430
O        1.34903000       1.99965000      23.13767000      -0.00910476       0.01034930      -0.00715635
H        1.94561000       2.84304000      21.58202000       0.00476050      -0.00442030       0.01603590
H        2.81227000       1.33181000      23.97480800       0.00397844       0.00043709      -0.00938048
O       20.30632000      22.77790000       7.45114000       0.10485100      -0.00842959      -0.00847594
H       21.76392000      22.76160000       6.11314000      -0.03048490       0.00493119       0.02929570
H       18.82342000      23.19130000       6.68414000      -0.06381870       0.00630016      -0.03724210
O       16.14052000      12.09720000      23.12480000      -0.05001880      -0.12240500       0.05520640
H       15.19012000      11.64100000      21.68470000      -0.01011410       0.00415600      -0.03608430
H       16.91292000      13.53350000      23.21960000       0.06509180       0.12119600      -0.01301140
O        8.38816000      13.09988000       4.31566000      -0.00000797       0.01689380       0.01236440
H        8.35456000      13.28058000       6.19476000       0.00899544      -0.01907910      -0.01433240
H        9.03106000      11.52348000       3.63326000      -0.00172997      -0.00575100       0.01352070
O       16.20558000      22.62700000      13.19574000       0.01785880       0.00808605      -0.00015833
H       17.81928000      23.42050000      12.59834000      -0.01654900      -0.00496465      -0.00115025
H       15.83328000      21.22230000      12.07464000      -0.00190873       0.00060132       0.00268754
O        7.29358000       1.08936000       4.76928000      -0.04207890       0.01782160       0.01675980
H        5.63428000       1.75206000       5.46910000       0.04153580      -0.01013230      -0.01349860
H        7.10198000       1.38816000       2.94194000       0.00601568      -0.00380920      -0.00016688
O        7.87884000      18.44610000       9.59156000      -0.04832210       0.15888800       0.07784170
H        8.56684000      16.98120000       9.31046000       0.05021380      -0.11950400      -0.00876943
H        8.08524000      19.04490000      11.55746000      -0.00015675      -0.03068600      -0.06397570
O       13.65676000       7.13898000      12.65738000       0.04198830       0.03376970       0.00500364
H       12.41696000       6.18508000      11.79538000      -0.01691110      -0.02415960      -0.01954200
H       15.45767000       6.82179000      12.13548000      -0.02172450      -0.01427570       0.01271420
O        7.04234000       1.05768000      24.11868000       0.02664530       0.02721350      -0.03480370
H        7.52101000      23.69164800      23.28438100      -0.01249550      -0.03535360       0.00899891
H        8.15769000       2.09403000      23.02456000      -0.02219430       0.01577220       0.01707920
O       20.89064000       5.53714000      23.24170000      -0.07983680       0.10016200      -0.00721314
H       20.54184000       7.03059000       0.36184000       0.00094139      -0.04113180      -0.03741510
H       22.01644000       4.67022000      24.11840000       0.07722110      -0.06176730       0.04250450
O       20.47403000      14.06968000       4.76424000       0.00364183       0.00458165      -0.05094490
H       19.71904000      14.86178000       3.16894000       0.01660970      -0.00637223       0.03192390
H       22.33051000      13.96548000       4.34504000      -0.02218410       0.00744341       0.01894010
O        8.82934000      13.53364000       9.63823000       0.06738740      -0.01268340      -0.02533320
H        7.49211000      13.43274000      10.79520000      -0.01264430      -0.01026690       0.02609500
H       10.65830000      12.82044000      10.19960000      -0.05676530       0.01179670      -0.00865359
O        6.10986000      18.75580000      18.16190000       0.14732300      -0.00713143       0.06250650
H        4.50526000      19.13350000      18.10650000      -0.12036200       0.03754190      -0.00486598
H        6.88396000      19.51060000      19.88040000      -0.02860050      -0.02537560      -0.04847770
O       10.14074000       8.40444000       1.88658000      -0.11501500       0.06275270       0.01066160
H       11.53684000       7.39074000       1.76448000       0.02831470      -0.05005320      -0.01160020
H        8.03264000       7.98564000       1.84498000       0.07114810      -0.00887482       0.00345915
O       13.54620000      11.22254000      19.15940000      -0.02882630      -0.02093460      -0.11593600
H       13.40920000      12.48974000      17.36950000       0.00802816      -0.02419740       0.05562220
H       13.26680000       9.49204000      18.11720000       0.01258780       0.04808820       0.04881770
O        2.13725000      20.86812000       0.12644000       0.02195840      -0.00222362       0.02276880
H        1.28148000      20.07072000      22.97660000      -0.03539600      -0.00358436      -0.03876340
H        2.79993000      19.31852000       0.78924000       0.00981695       0.00259147       0.01927510
O        1.36137000      13.79990000       5.29419000      -0.03923750      -0.03020070       0.01676360
H        1.56155000      11.98180000       5.07733000       0.00509232       0.01262800       0.00303482
H        2.76994000      14.70660000       4.80085000       0.03580320       0.01677510      -0.02127220
O        2.05593000       1.77354000      14.87770000      -0.03118400      -0.07626860      -0.06328740
H        1.69213000      24.11422100      15.30380000       0.00677625       0.03319750      -0.00718565
H        2.53692000       2.42050000      16.38500000       0.02126010       0.03613980       0.06702160
O       12.71022000       5.59628000      18.06202000       0.04738950      -0.01913420      -0.02472380
H       12.99712000       5.40928000      16.18602000      -0.00326368       0.00555023       0.03767410
H       14.29412000       4.78648000      18.94612000      -0.03637050       0.02293830      -0.01944170
O        2.17814000       3.93808000       6.06936000       0.04415470       0.06015270       0.09816000
H        2.85749000       3.37938000       7.91546000      -0.02333450       0.01613490      -0.06204680
H        1.75473000       2.54158000       5.17986000      -0.02231340      -0.06813240      -0.02913650
O       13.44022000      14.84394000       3.01176000       0.06804060       0.03234780       0.02794390
H       14.22252000      13.79834000       1.81632000       0.00905398      -0.02216730      -0.02648070
H       11.75832000      14.58514000       3.01725000      -0.08081850      -0.02212410       0.00492503
O       22.88630000       7.93684000      14.43830000       0.01990240       0.03806900      -0.05587950
H        0.07894000       7.40264000      13.09630000      -0.02086280       0.00849486       0.03548950
H       22.66560000       9.83354000      13.84980000      -0.00477137      -0.05205330       0.01742710
O       10.17116000       3.44656000      10.78490000      -0.03192920       0.00468709       0.11494700
H       11.06306000       2.99156000       9.44808000       0.04949620      -0.02571510      -0.09028350
H       10.87206000       2.03896000      12.26460000      -0.03426360       0.03337030      -0.03806610
O        3.33792000       4.43412000      18.94840000      -0.01852450       0.05602960      -0.01182590
H        2.45312000       6.13629000      18.64360000       0.02430790      -0.04754550       0.01120380
H        5.15532000       4.83274000      18.96000000      -0.00476349      -0.00563739       0.00833513
O        2.68366000       7.95486000      10.97254000      -0.07161790       0.06347670      -0.04586970
H        3.47906000       6.38156000      10.69534000       0.01137890      -0.02709110      -0.00676070
H        1.49726000       8.52546000       9.35194000       0.04833800      -0.03029970       0.05312950
O       16.45790000      14.79360000       7.84344000       0.01063930      -0.02059780      -0.09271080
H       18.41930000      14.55730000       7.07114000      -0.06637410       0.00940054       0.02097220
H       15.25090000      14.46170000       6.06194000       0.04951880       0.01877630       0.07212500
O        0.39606000      20.81378000      17.36234000      -0.01017710       0.01925260      -0.00438732
H       23.37962000      22.06810000      18.47404000       0.02169390      -0.02245830      -0.03702420
H        0.02006000      20.68954000      15.49894000      -0.00813080       0.00129918       0.03916270
O       18.98784000       9.14976000       7.84984000      -0.03000350      -0.04529850       0.00228288
H       18.18244000       9.32708000       6.13544000       0.00871884      -0.01301910       0.04116950
H       18.44054000       7.46626000       8.88914000       0.01867740       0.05835110      -0.03697440
O       13.51116000      14.51622000      14.97740000      -0.01600490      -0.03107870      -0.01546600
H       15.01406000      15.45662000      15.32788000       0.00900710       0.00250745      -0.01167910
H       13.60536000      13.43472000      13.28466000       0.00572389       0.02378150       0.03393070
O        4.69078000       3.35506000      10.80006000       0.03738500       0.04376880      -0.07616550
H        6.54668000       3.42476000      10.58536000      -0.00775925      -0.00185161       0.00136605
H        4.37588000       2.37806000      12.15926000      -0.02346120      -0.04267140       0.06708400
O       15.35200000      22.05731000       5.65223000       0.00330779      -0.02315860       0.01681050
H       14.38460000      23.56617600       5.80853000      -0.01086320       0.01434310      -0.00144425
H       14.90070000      20.98583000       7.18763000       0.00472319       0.01700350      -0.01898880
O       14.73172000      18.23586000      20.04024000       0.02824650      -0.09510780       0.04315610
H       15.39552000      16.34734000      19.87914000      -0.01572340       0.06418140      -0.01969720
H       14.68472000      17.92654000      21.91134000      -0.00889411       0.03224170      -0.02283720
O        3.99738000      12.79106000      13.38466000      -0.02541520      -0.08604700      -0.01487570
H        4.22745000      12.57506000      15.20985000       0.00557823       0.01480890      -0.00170924
H        3.30900000      10.93256000      12.90326000       0.03067510       0.06265190       0.00665962
O       18.94530000      16.40940000      14.26280000      -0.05842360      -0.06218730      -0.00517659
H       20.44640000      17.19690000      14.13590000       0.06530950       0.05472280       0.00094613
H       19.37370000      14.98640000      13.15770000      -0.01161230       0.00324322       0.00787943
O        9.66008000      19.23760000      14.42110000       0.03461520      -0.06848440      -0.01474920
H       10.64530000      17.44990000      13.97936000      -0.03712320       0.07313100       0.03056760
H        8.67075000      18.97910000      15.98722000       0.00236173      -0.00490367      -0.01644600
O       23.85100000       8.80138000       6.35594000      -0.00758349       0.00018827      -0.00388625
H       21.99320000       8.76498000       6.38484000       0.01087740       0.00658246       0.01107450
H        0.12024000       7.11268000       5.84834000       0.01125520      -0.01268440       0.00051031
O       18.86863000       9.23084000       2.03952000       0.00039373      -0.03451730       0.01160980
H       19.54094000      10.69450000       2.73501000       0.02604790       0.03280840       0.02384240
H       17.80914000       9.98122000       0.81211500      -0.02252060       0.01280820      -0.03273110
O       17.13180000      22.65702000      18.54220000      -0.00710630      -0.01644340       0.04753050
H       16.59610000      21.01052000      19.47970000       0.00425294       0.03651230      -0.04394830
H       16.88030000      22.68362000      16.74240000      -0.00580837      -0.01926980      -0.00591427
O       22.65842000      17.90790000      21.14044000       0.04255030       0.04825510      -0.01331700
H       21.92290000      16.33080000      20.83594000      -0.00849131      -0.03048290      -0.01539930
H       23.75397000      18.45000000      19.61714000      -0.03622230      -0.01466780       0.02796350
O       13.76104000      19.63564000       1.12384000      -0.02870070      -0.07698910       0.00700189
H       14.01594000      20.45334000       2.66475000       0.01341420       0.04153190       0.03214890
H       13.25514000      17.91444000       2.02942000       0.01654930       0.04060720      -0.03859060
O       19.88410000      13.87510000      19.58092000      -0.00005582      -0.01455070       0.07284660
H       20.45720000      12.15060000      19.69322000       0.00580308      -0.00639947       0.00301364
H       19.80400000      14.10660000      17.90202000      -0.00645564       0.02128260      -0.08132300
O        5.67726000      16.80794000       2.34906000       0.03461590      -0.02167840       0.04235300
H        6.68126000      15.35874000       3.29959000      -0.02254970       0.02097850      -0.04104320
H        6.15666000      18.13984000       3.55695000      -0.01829730       0.00182190      -0.00571669
O        5.25609000      20.78942000       5.70834000      -0.02104400       0.01645940      -0.10884200
H        5.29749000      20.42992000       7.36274000       0.03053390      -0.00938970       0.07995750
H        6.29936000      22.18172000       4.89594000      -0.01065160      -0.00928672       0.03994740
O        5.07608000       8.05484000       1.79420000       0.01045870       0.02101080      -0.06249520
H        3.78023000       7.80214000       2.94085000      -0.02165480      -0.01120040       0.03110620
H        4.16875000       8.65944000       0.19797900       0.01540790      -0.01163380       0.02573410
O       13.37536000      11.78646000      10.81440000       0.07064280      -0.04991380      -0.01037350
H       13.88976000       9.73546000      11.29400000      -0.03791970       0.05549560       0.00012608
H       14.97456000      12.32186000       9.80855000      -0.04140280       0.00099575       0.01732100
O       18.51889000       5.93342000      12.11640000      -0.02129270       0.00976311      -0.01662490
H       19.94666000       6.57278000      13.07780000       0.00710472      -0.00757523       0.00138015
H       18.54679000       4.12874000      11.76410000       0.01774990      -0.00256798       0.00600262
O        2.72734000      10.36666000      21.74637000       0.04514880      -0.00601194       0.04616700
H        4.32914000      11.26666000      21.44943000      -0.04152560      -0.00798952      -0.00989106
H        1.42224000      10.40606000      20.53638000      -0.00987658       0.00708156      -0.02165700
O       22.33870000       9.04364000      19.26674000      -0.04005090      -0.05040350       0.00749084
H       21.14960000       8.01332000      20.58964000       0.05597060       0.02539170      -0.05703370
H       22.51220000       8.10353000      17.48544000      -0.00979697       0.02524000       0.05184510
O       16.37340000       3.35694000      20.81634000      -0.06252500      -0.06214120      -0.03898310
H       18.09960000       3.44174000      20.86754000       0.05857880       0.01223680       0.00548913
H       16.14270000       1.61524000      19.81414000       0.00712157       0.04198900       0.03432290
O        8.73836000      10.68620000      21.22350000       0.03588840       0.01446460       0.03031490
H       10.48556000      11.20530000      20.53100000      -0.03242820      -0.01295770       0.00889813
H        9.05306000      10.67890000      23.12690000      -0.00541695      -0.00653931      -0.04392990
