192
Lattice="24.12609 0.0 0.0 0.0 24.12609 0.0 0.0 0.0 24.12609" Properties=species:S:1:pos:R:3:force:R:3 TotEnergy=-1103.42454 cutoff=-1.0 nneightol=1.2 pbc="T T T"
O       23.21530000      20.38070000      18.71458000       0.00414153      -0.07912450      -0.00069304
H       21.50060000      19.75602000      18.23458000       0.02035350       0.02026780       0.00146449
H       24.11600000      18.59548000      19.00268000      -0.01587230       0.05475250      -0.00677788
O        1.54132000      21.50731000       4.52002000      -0.02664410       0.04107960      -0.00818796
H        2.35482000      20.77101000       5.88337000       0.02162010      -0.03692140       0.01071170
H        1.31602000      20.91871000       2.78451000       0.01646430      -0.01154330       0.00119089
O       10.20790000       2.79901000      11.44600000      -0.01036570       0.01015350      -0.02560000
H       10.74520000       4.33603000      12.25890000      -0.00205200      -0.00808950       0.01112140
H       10.01980000       1.31865000      12.45510000       0.01141300      -0.00371653       0.01197520
O       18.33328000      14.86861000       0.97727600       0.01355910      -0.06248740       0.00688758
H       19.29954000      15.22300000      23.63817800       0.00752008       0.01727020      -0.01453820
H       17.41291000      16.09298000       1.76618000      -0.02254330       0.05470900       0.01069100
O        7.88692000       5.94461000      18.65540000       0.03514380       0.04272280       0.01385580
H        8.71402000       7.84751000      19.48750000      -0.02722520      -0.05746240      -0.02446000
H        9.11669000       5.16481000      17.49780000      -0.01144720       0.01908380       0.01459870
O       20.89440000      12.09530000      11.72960000      -0.01285560      -0.01618640      -0.04807040
H       19.66364000      11.31390000      10.37730000       0.03872460       0.01337630       0.04040440
H       22.54605000      12.31930000      10.86330000      -0.02627920       0.00086549       0.01159330
O       20.46841000       0.73571000      11.73010000       0.02481700       0.01179210       0.03298800
H       21.96181000       1.33451000      12.76070000      -0.02451780      -0.00490241      -0.02690040
H       21.01001000       0.58031000       9.99374000       0.00579056       0.00049477       0.00013098
O        1.06386000      19.77598000      10.49010000       0.01035840       0.07073080       0.00717554
H        0.90779700      18.05928000      10.57320000      -0.02438860      -0.06249880      -0.00432322
H       23.89680000      20.72838000       9.57082000      -0.00267664      -0.01247330      -0.00286018
O        6.50961000      13.77498000      17.68120000      -0.03276340      -0.16248300       0.05713460
H        6.89551000      15.32598000      17.40040000       0.04334920       0.14266700      -0.02015550
H        7.31611000      13.05898000      19.26730000      -0.00965099       0.01632590      -0.03742000
O        8.36349000      20.41688000      21.57138000       0.00656520       0.01812690       0.01127530
H        9.78151000      21.33548000      22.46508000      -0.01658750      -0.01647970      -0.01146340
H        7.61123000      19.35598000      22.88498000       0.00620629       0.00026751      -0.00532618
O       13.85649000       3.82769000       7.31428000      -0.03531270      -0.00851189       0.03828690
H       12.47339000       3.69999000       8.74270000       0.04289800       0.00299097      -0.04173880
H       12.92219000       3.50961000       5.79002000      -0.00434433       0.00180912      -0.00539783
O       11.06669000       4.46821000       2.28652000       0.00832283      -0.05338750      -0.03599190
H        9.92209000       2.80151000       2.28602000       0.02393640       0.04718110      -0.00756334
H       12.22639000       4.31611000       0.70282000      -0.03248950       0.00059966       0.04410290
O       15.51420000      19.85308000      11.39359000       0.01842610       0.05824770       0.01713140
H       15.72590000      18.22918000      10.96149000       0.04369650      -0.08459220      -0.03478540
H       13.87830000      19.54698000      11.88099000      -0.06522320       0.02589970       0.02149550
O        1.59431000      14.59090000      10.90761000       0.02102060       0.01477030      -0.05737160
H        2.93281000      14.76320000       9.48541000      -0.03767240      -0.01397030       0.04778210
H        2.35691000      14.47270000      12.51821000       0.01764890      -0.00696596       0.00710878
O        0.57773500       3.08747000      24.10399500       0.00384099      -0.01706140       0.01042680
H        1.26262000       2.98849000       1.70400000      -0.00550783       0.00888524      -0.00814831
H        0.52884800       1.30697000      23.68010100       0.00309503       0.00937277      -0.00314399
O       21.87248000      22.48100000       7.41861000      -0.01137020      -0.01022560       0.00288683
H       22.74318000      21.92930000       5.90181000       0.00695854       0.00782850      -0.00046059
H       20.10188000      22.06960000       7.18031000       0.00193157       0.00677152      -0.00176470
O       15.55618000      10.70530000       1.09461000      -0.06947470      -0.18160300       0.05385760
H       14.59928000      10.38380000      23.80040000      -0.02371330      -0.01157240      -0.03603870
H       16.18258000      12.14510000       0.92301000       0.09374590       0.18298700      -0.02546710
O        8.62429000      13.82242000       4.72449000       0.02479430      -0.02541290      -0.15443900
H        8.16799000      13.65662000       6.29459000      -0.04276080      -0.01634680       0.12941000
H        8.10779000      12.25112000       3.71619000       0.01448150       0.03626630       0.03143520
O       19.35732000      20.78270000      14.83841000      -0.01920230       0.00198371       0.00527120
H       20.16332000      21.84590000      13.61271000       0.00308337       0.00927473      -0.00724534
H       17.56642000      21.25520000      14.60321000       0.02310150      -0.01322210       0.00025120
O        7.34692000       0.78569000       2.07956000      -0.08881830       0.02821660       0.00138716
H        5.83992000       1.46739000       3.27835000       0.05493380      -0.02086730      -0.03784080
H        6.31122000       0.88189000       0.27137900       0.04300450       0.00165162       0.03957280
O        5.89841000      19.12160000       9.13059000      -0.06111460       0.11045600      -0.01216510
H        6.13851000      17.60230000       9.69769000       0.04457230      -0.12992900       0.03530000
H        4.19661000      19.34430000      10.03189000       0.02945990       0.02285820      -0.02786020
O       12.51989000       7.96083000      10.59432000      -0.02566780       0.02883040      -0.03979120
H       10.89799000       8.44412000       9.56122000       0.04734600      -0.02314010       0.02889990
H       13.94909000       7.98780000       9.37412000      -0.02251740      -0.00489233       0.01711970
O        5.94932000       0.98749900      21.40533000      -0.06158880      -0.09392150       0.05521810
H        6.13527000      23.10941000      21.38121000       0.02221790       0.06759960      -0.01850790
H        6.81765000       2.22120000      20.57002000       0.04155380       0.02571280      -0.03775560
O       19.80401000       5.30843000      23.56400000      -0.00832427       0.00182350       0.02887540
H       19.56691000       5.55448000       1.32941000       0.00353042      -0.00885199      -0.04242830
H       21.41951000       4.48790000      23.26610000      -0.00033928       0.00317489       0.01226090
O       20.86107000      12.81542000       5.40841000       0.05519870       0.01144240       0.02095740
H       19.82912000      13.51822000       4.15151000      -0.01159680       0.01074750      -0.02632280
H       22.63275000      13.69292000       5.23901000      -0.04542230      -0.02263600       0.00400278
O        8.44561000      14.04521000      10.42690000       0.11925400       0.05695170      -0.08325390
H        7.60664000      13.21651000      11.58970000      -0.06036000      -0.06837140       0.07733400
H       10.39120000      13.65571000      10.75630000      -0.05983180       0.01207850      -0.00312560
O        6.99919000      19.76710000      16.24400000      -0.02842550      -0.02965800      -0.10218100
H        5.70019000      20.97260000      15.79690000      -0.01896990      -0.01086890      -0.03000000
H        7.12129000      20.50470000      17.71080000       0.03845800       0.03516300       0.13342700
O        8.72041000       8.81651000       1.76652000      -0.08624190       0.07111840       0.00934810
H        9.30491000       7.29461000       2.22932000       0.05831140      -0.08972550       0.00807064
H        6.96191000       8.52721000       2.52312000       0.02550660       0.02450430      -0.02676350
O       14.17620000      10.12201000      19.32570000      -0.02505060       0.00105792      -0.08845860
H       13.78590000      11.70601000      18.23360000       0.01648590      -0.01770180       0.03068870
H       13.99400000       8.84481000      17.72260000       0.00644922       0.01931800       0.05988040
O        1.57466000      20.98978000      23.88820000      -0.00657889      -0.04125810      -0.07069980
H        0.28538000      21.15948000      22.28120000       0.05449940      -0.01740460       0.05912670
H        2.83638000      19.44898000      23.57900000      -0.04837010       0.05513750       0.00206669
O        1.75626000      14.26980000       5.26197000       0.01378430      -0.00015405      -0.02031600
H        2.40169000      12.53580000       4.99684000      -0.00385443       0.01026960       0.00180918
H        2.45290000      15.06890000       3.73999000      -0.00977020      -0.00119316       0.01858910
O        1.69506000       2.77641000      14.04050000      -0.01014230      -0.00781971       0.03269590
H        1.84156000       0.85938600      14.48230000      -0.00424524       0.03463140       0.00404224
H        1.56975000       3.80242000      15.64500000       0.00760651      -0.02430020      -0.03236190
O       13.36438000       5.72242000      16.38408000       0.04697430      -0.03184940      -0.04403240
H       14.49848000       5.10452000      14.79788000      -0.03612800       0.02810720       0.03294370
H       14.21258000       4.61332000      17.57568000      -0.01335650       0.00744442       0.01165120
O        2.60769000       2.35342000       5.02619000       0.02718310      -0.03312030       0.01594440
H        3.33956000       3.00692000       6.63239000      -0.01071410      -0.01585920      -0.02013470
H        2.80381000       0.40462000       5.10219000      -0.01686620       0.04826440      -0.00074688
O       13.61478000      14.41211000       4.40114000      -0.05750210      -0.02867170       0.01935940
H       14.06378000      12.86481000       3.53053000       0.00866230       0.00459988       0.00002007
H       11.72338000      13.82941000       4.89589000       0.04697350       0.03280520      -0.01838100
O       19.87680000       7.63631000      14.90420000       0.01036780      -0.03371250      -0.07916780
H       19.78610000       8.25711000      16.47070000      -0.00020511       0.03502120       0.08756880
H       20.97270000       8.66631000      13.88280000      -0.00538313       0.00326513       0.00110288
O        8.64339000       6.82639000       7.37340000      -0.03277410       0.01020110      -0.00599609
H        9.29819000       7.42509000       5.81969000       0.01734380      -0.00107238      -0.00994552
H        6.86469000       7.31229000       7.12607000       0.01280100      -0.00561365       0.01696530
O        2.80668000       6.07815000      19.32190000       0.02132420       0.00836962      -0.00974512
H        2.62998000       4.97947000      20.78630000       0.01025890       0.00427654      -0.01002580
H        4.67968000       6.32545000      18.82600000      -0.03312050      -0.01956380       0.01638700
O        3.27799000       7.61819000       9.14391000      -0.03534640      -0.04113300      -0.00713123
H        3.88389000       5.74599000       9.49221000      -0.02484060       0.04448780      -0.00561181
H        1.37269000       7.62689000       8.65841000       0.05600830      -0.00837852       0.01130240
O       16.46020000      15.47190000       8.55971000      -0.09045800       0.03508980       0.01657240
H       17.96900000      14.78250000       8.20081000       0.06615670      -0.03424920      -0.02665160
H       15.18460000      15.29650000       7.16711000       0.02928620      -0.00526569       0.00463469
O        2.05689000      22.17258000      14.97661000      -0.05830190      -0.05103010       0.05783600
H        0.63059000      21.21802000      16.44091000       0.04708660       0.04523470      -0.01720150
H        1.14939000      21.16780000      13.76071000       0.01690460       0.00418562      -0.03085450
O       17.86981000       8.39766000       9.16861000      -0.01300490      -0.01356130       0.02627130
H       17.80641000       8.02498000       7.36771000       0.00538124      -0.00816189       0.01639940
H       17.48671000       6.91818000      10.43591000       0.01106980       0.02610010      -0.04056450
O       13.87189000      14.73888000      16.68373000      -0.03978120      -0.01268220      -0.02705290
H       15.62899000      14.95788000      16.88746000       0.02217110       0.00313316      -0.01052010
H       13.45799000      14.25508000      14.84129000       0.02197060       0.00769543       0.03881380
O        4.75732000       2.49819000       9.97679000       0.07603510       0.00997864      -0.00263114
H        6.73992000       2.58599000      10.49119000      -0.06878730      -0.00035780      -0.01536300
H        3.74522000       2.36519000      11.47919000      -0.00134112       0.00485783       0.01505030
O       16.58030000      22.74853000       7.39197000       0.08242730      -0.12163000      -0.05617330
H       15.82890000       0.05892100       7.51978000      -0.06844620       0.12567300       0.02914830
H       16.74540000      21.66396000       8.80103000      -0.02239810       0.00287134       0.02562340
O       12.90398000      22.15468000      23.12521000      -0.01538510       0.02005120       0.05060200
H       13.60278000      21.81481000      21.54461000       0.02863140      -0.01854580      -0.02021860
H       13.90568000      21.53244000       0.46592000      -0.00553478      -0.00012077      -0.02050850
O        5.43629000      10.54029000      12.79669000      -0.00283506       0.01122370       0.02182260
H        5.58346000      11.14689000      14.61043000      -0.02110470      -0.02929060      -0.03990110
H        4.05234000       9.42309000      12.07959000       0.02583000       0.02144170       0.02632920
O       19.48410000      15.80850000      15.83100000       0.02986270       0.01603320      -0.09701790
H       19.93820000      17.47980000      14.52060000      -0.02811700      -0.05638880       0.06486450
H       19.79130000      14.36180000      14.49780000      -0.00689938       0.03515960       0.03996800
O       10.26790000      21.28310000      12.57959000      -0.04103910      -0.03428350       0.00788452
H        9.00988000      20.59180000      13.83989000       0.03006110       0.02201250       0.01096870
H        9.34346000      20.26470000      11.34909000       0.01584500       0.01577240      -0.02032050
O       23.06460000       8.10562000       5.60881000      -0.03423610       0.05126130      -0.01846040
H       21.83130000       9.58032000       5.13321000       0.04477390      -0.01406200       0.02139310
H       21.79510000       6.92582000       5.21431000      -0.00501856      -0.03574440       0.00107893
O       17.38403000       6.54528000       4.08810000      -0.04841910       0.01577670       0.02438540
H       16.43549000       7.90588000       3.08069000       0.02017920      -0.03087970       0.02563820
H       16.18846000       5.87925000       5.54109000       0.02672590       0.01171540      -0.05101390
O       13.59760000      20.45808000      18.50440000       0.32271100      -0.02862170      -0.05350550
H       12.13940000      20.67028000      18.78910000      -0.30444700       0.02258620       0.03431000
H       14.16870000      19.39628000      17.14250000      -0.02342140       0.00088375       0.00934156
O        2.30648000      16.33960000      20.00751000       0.04613230       0.04947850      -0.01095110
H        1.15017000      15.19640000      20.43011000      -0.09971460      -0.04530050       0.03574600
H        3.41616000      15.02410000      19.54421000       0.04754690       0.00205324      -0.02717610
O       15.43601000      19.89071000       3.13181000      -0.00265989      -0.00129028      -0.00534606
H       15.41031000      20.93691000       4.64231000       0.00494475       0.00021681       0.00068123
H       14.27561000      18.54211000       3.48524000      -0.00401974      -0.00120969       0.00114603
O       21.34100000      14.37820000      20.88508000      -0.01600100       0.05066200      -0.04138730
H       21.00510000      12.66100000      21.14388000      -0.00602648      -0.03673450      -0.00307713
H       20.43990000      14.87080000      19.21798000       0.02522250      -0.01564300       0.03644560
O        6.38099000      17.97191000       1.38003000       0.01234400      -0.01079380       0.03952340
H        6.88719000      16.41071000       2.20049000      -0.00765827      -0.01609320      -0.01805760
H        7.27239000      18.85411000       2.75431000      -0.00626614       0.02491900      -0.01258680
O        9.49346000      21.04278000       5.17501000       0.04475220      -0.01451810      -0.03849910
H        8.43318000      20.65128000       6.49431000      -0.03580430       0.00292261       0.03339520
H        9.03254000      22.45378000       4.14651000      -0.01496090       0.00873871       0.00310892
O        3.78506000       9.97301000       3.50347000       0.02176270       0.00703815      -0.00864696
H        2.88699000       8.83951000       4.52405000      -0.01781410      -0.02193140       0.02182990
H        3.08948000       9.69181000       1.85504000      -0.00548792       0.00407804      -0.01746140
O       13.43669000      12.96679000      11.92910000      -0.00801532      -0.00169621      -0.01014050
H       13.57569000      11.19799000      11.51150000      -0.01277310      -0.02077730       0.01335270
H       14.57364000      13.57959000      10.65830000       0.01508220       0.02281320      -0.00472057
O       16.83906000       4.70121000      12.68640000       0.02874600      -0.06968330       0.00342622
H       18.02418000       5.36790000      13.94490000       0.00165302       0.01836680      -0.00538973
H       17.74961000       2.92620000      12.48520000      -0.02965230       0.04926980      -0.00744757
O        2.35651000      10.15459000      22.37756000      -0.00203636       0.03712820       0.00875569
H        2.20801000      11.84679000      21.67013000       0.00043677      -0.02041190       0.01104460
H        2.24351000       9.03639000      20.95821000       0.00101436      -0.01928920      -0.01065880
O       19.59940000       9.10012000      20.01511000      -0.03819810      -0.00303780       0.03035570
H       19.57200000       7.73045000      21.32461000       0.01391760       0.01247940      -0.01376900
H       17.83530000       9.70959000      20.31971000       0.02279870      -0.00451973      -0.01729140
O       14.62500000       3.21311000      21.79941000       0.06851130       0.10065400      -0.01282970
H       16.56920000       3.67721000      21.94511000      -0.06614440      -0.02769860       0.00463406
H       14.21110000       1.57051000      22.04461000      -0.00170274      -0.06860940       0.01498280
O        9.10389000      10.24820000      20.94510000       0.02867530      -0.00765131       0.01347860
H       10.93469000      10.57430000      20.41570000      -0.02757200      -0.01291630       0.01571850
H        9.07079000       9.57171000      22.76790000       0.00132659       0.01549600      -0.03113380
