192
TotEnergy=-1102.00757000 cutoff=-1.00000000 nneightol=1.20000000 pbc="T T T" Lattice="25.15227000       0.00000000       0.00000000      -0.00000100      25.15227000       0.00000000      -0.00000100      -0.00000100      25.15227000" Properties=species:S:1:pos:R:3:force:R:3:Z:I:1
O              20.73090000     21.84400000     11.79150000      0.22918600      0.09141750      0.07682900       8
H              19.50240000     21.30400000     11.05650000     -0.20880900     -0.10695100     -0.13705200       1
H              20.00440000     22.23380000     13.29690000     -0.01639480      0.01086010      0.05122330       1
O              18.20230000      1.35289000      8.13971000      0.01642450     -0.06371790      0.00008888       8
H              19.29410000     -0.19278200      8.48539000     -0.02458740      0.04867320     -0.00599697       1
H              18.86960000      2.74064000      9.09687000      0.01357460      0.02347610      0.01221610       1
O              15.88020000     22.59240000      3.91233000     -0.05939390     -0.01427130     -0.06093860       8
H              14.00770000     22.88650000      3.70669000      0.03917670     -0.00677425      0.00293391       1
H              16.01160000     23.08020000      5.55896000      0.01624370      0.02128850      0.05852660       1
O              10.17720000     19.72290000     18.53590000     -0.01851130     -0.13815100      0.01603040       8
H               9.53929000     19.27000000     20.23410000      0.00623887     -0.00964990     -0.02579830       1
H              10.25890000     21.31840000     18.81340000      0.01405720      0.15683700      0.00576197       1
O              20.62940000      6.38906000     19.79570000     -0.03132430      0.00831571      0.03997580       8
H              19.50260000      7.89559000     20.32850000      0.04694110     -0.04070870     -0.04903670       1
H              21.58650000      6.06365000     18.24970000     -0.02273900      0.02859260     -0.00438804       1
O               4.08992000      3.54528000      8.16552000      0.20513600      0.11788900     -0.09170610       8
H               3.44647000      2.87790000      6.78795000     -0.02872220     -0.04439630     -0.10484900       1
H               3.10039000      3.12390000      9.24857000     -0.17017000     -0.06954480      0.20076500       1
O               8.50449000     23.59830000     10.19370000      0.03817270      0.05115710     -0.06052660       8
H               7.68543000     22.70110000     11.65140000      0.01230270      0.00784648     -0.01001450       1
H               9.04369000     25.44140000      9.83333000     -0.03372410     -0.04229100      0.04883270       1
O              15.68710000      4.38538000     22.30980000     -0.01044020      0.05608420     -0.05510560       8
H              14.31120000      5.88016000     22.01390000      0.06459550     -0.06237310      0.00691900       1
H              17.21840000      4.59880000     21.03060000     -0.05163660      0.00737596      0.03881110       1
O              17.06930000     18.63710000     12.84750000     -0.05626320     -0.02041320      0.06432850       8
H              13.86330000     20.24940000     13.48250000      0.06542650     -0.02708540     -0.02640210       1
H              17.03310000     17.20560000     14.26540000     -0.01087640      0.05276480     -0.04297200       1
O              15.61530000     20.75170000     23.74170000      0.02856600      0.19565100     -0.00656235       8
H              15.39170000     19.15750000     23.91980000     -0.03241730     -0.14457800      0.03611400       1
H              15.48080000     21.97520000     25.24140000      0.00610734     -0.05367120     -0.03023240       1
O              20.38200000     12.02330000     15.57230000      0.04078380     -0.04171850     -0.01689010       8
H              21.11490000     13.11230000     14.13710000     -0.01739430     -0.01945970      0.04402330       1
H              21.85590000     10.76560000     15.80940000     -0.04545530      0.03377640     -0.00873536       1
O              10.50180000      8.82584000     19.10730000     -0.26904300      0.03677890     -0.00580665       8
H              11.98760000      8.52268000     19.04840000      0.28776300     -0.04699890      0.00136053       1
H              10.09370000      8.53758000     17.36710000     -0.01337790      0.01181390     -0.00074428       1
O               6.92163000     20.29770000     23.55870000      0.03315390     -0.06895730     -0.05983820       8
H               6.80204000     21.62620000     24.63200000      0.00547108      0.04342470      0.05067660       1
H               8.55461000     19.33910000     23.74020000     -0.03702390      0.02370220      0.01202160       1
O               5.84379000     13.13950000      2.88012000     -0.00441592     -0.01795020      0.00101878       8
H               6.27971000     11.73390000      4.08998000     -0.02870370      0.03010050     -0.02562960       1
H               4.20680000     12.86970000      1.99507000      0.02495010     -0.01030990      0.02789680       1
O               6.62476000      4.75990000     20.23460000      0.04377920      0.02748190     -0.03052950       8
H               8.03525000      3.73960000     19.46820000     -0.02964870      0.01560790      0.01806040       1
H               7.19444000      6.57526000     19.84560000     -0.01493300     -0.04557150      0.01675190       1
O              15.65490000     14.60480000      5.28205000     -0.00500724      0.02228650     -0.05193210       8
H              14.73330000     15.55680000      3.87054000      0.01570330     -0.02344470      0.05132420       1
H              14.62730000     14.36840000      6.77418000     -0.01619270      0.00019819      0.00395997       1
O              21.48060000      9.26802000      2.17816000      0.04840420     -0.06429820      0.01937400       8
H              20.73640000      9.99928000      0.84047900     -0.05005240      0.05494050     -0.05049240       1
H              22.02650000      7.77659000      1.19306000      0.00052725      0.00239453      0.02783570       1
O              22.14870000     23.70580000      1.61664000      0.20077000      0.01362470      0.07041860       8
H              20.67150000     23.06630000      1.63848000     -0.15108700     -0.05699270      0.00663600       1
H              23.13760000     22.52160000      3.14269000     -0.04756300      0.05945480     -0.06116870       1
O              13.18570000      1.95934000      6.77052000     -0.02420810      0.03883580      0.04660040       8
H              13.91200000      2.89594000      8.27347000      0.00670465     -0.02330230     -0.03192350       1
H              11.65770000      3.01507000      6.71914000      0.00997998     -0.01564290     -0.01722730       1
O               6.61512000     22.00860000      4.95777000      0.02984480      0.02491090      0.02146770       8
H               9.51322000     23.54290000      7.50892000     -0.05391520     -0.03455160     -0.01257810       1
H               5.34016000     23.31200000      5.28495000      0.01620430     -0.01264090     -0.00672152       1
O               3.64504000     11.95180000     10.70830000      0.22206000     -0.21705100     -0.00277035       8
H               3.41666000     10.56380000      9.41854000      0.00853846      0.04043130      0.02714690       1
H               2.44548000     12.86420000     10.57260000     -0.23204500      0.17859300     -0.02352440       1
O              11.28610000      0.47682400     17.23490000     -0.05284750     -0.01166960     -0.07000580       8
H              11.45210000      0.87834100     15.35810000     -0.01092750     -0.01724740      0.05260890       1
H              12.72340000      1.05656000     17.94190000      0.06442380      0.01977870      0.03129350       1
O              15.29940000     11.03540000     14.31770000     -0.06640300     -0.04064790     -0.05803040       8
H              16.98440000     11.08990000     14.44970000      0.09332710     -0.00338188      0.00356565       1
H              14.77610000     11.95210000     15.66350000     -0.03080740      0.03977370      0.04812520       1
O               3.04593000      0.72608800      3.81745000      0.05035570     -0.03367640      0.05070030       8
H               2.94427000      1.53102000      2.33131000      0.01014440      0.03981430     -0.07660120       1
H               1.42967000      0.76347600      4.36019000     -0.07209380     -0.00880894      0.02747710       1
O              11.85410000     16.30260000     24.05000000     -0.01173780      0.03807190      0.05891840       8
H              11.32280000     14.58780000     24.37000000      0.00531055     -0.00222038     -0.01244800       1
H              11.43120000     17.11890000     25.80330000      0.00406077     -0.02328570     -0.05058290       1
O              14.41660000      6.26876000     10.53610000      0.02428490     -0.05997880     -0.04270180       8
H              13.35940000      7.30724000     11.30360000     -0.07486370      0.06652770      0.04229450       1
H              15.86980000      6.67780000     11.48690000      0.05025140     -0.00826785     -0.00145711       1
O              21.35780000     20.68790000     23.02680000     -0.08007460     -0.08122290     -0.00721731       8
H              19.36490000     20.45200000     23.25880000      0.06782930      0.00663068     -0.01061650       1
H              21.48940000     22.39410000     22.97220000      0.01165710      0.06403460      0.00576282       1
O               9.79231000      2.71099000     12.91200000     -0.07012960     -0.04021150     -0.04018940       8
H               8.42865000      3.89273000     12.85010000     -0.01456820     -0.00625645     -0.00394720       1
H              10.97610000      3.70891000     13.53320000      0.08588310      0.06009220      0.03156640       1
O              22.82990000     15.50380000     14.56990000      0.00796110      0.10850800     -0.04268280       8
H              22.11120000     17.02860000     15.57150000      0.02128530     -0.04790940     -0.03160300       1
H              23.17840000     16.32980000     12.74370000     -0.00484339     -0.03235830      0.05988170       1
O               1.72825000     17.64880000     25.38360000     -0.03965730     -0.03929230     -0.05686630       8
H               2.49754000     15.72900000     25.26010000     -0.04701820      0.08504780      0.00258673       1
H               0.00866300     17.94340000     24.17620000      0.07871990     -0.02347850      0.05536360       1
O              18.42630000      2.39231000      1.07344000      0.09328180     -0.02095910      0.13365700       8
H              17.64380000      3.15883000      2.54110000      0.00489969     -0.00946142     -0.00946983       1
H              17.46760000      2.61247000     -0.20087500     -0.09889640      0.03061330     -0.11934400       1
O               5.38524000     12.55530000     21.46000000      0.15537500     -0.04626000      0.12899200       8
H               3.87489000     12.63360000     20.99630000     -0.18267500      0.01855950     -0.08699010       1
H               4.93354000     11.65340000     23.14180000      0.03618330      0.02124290     -0.04331860       1
O              16.26100000     10.25500000     19.73550000     -0.16615000     -0.25844000      0.15261700       8
H              16.85650000     10.04750000     21.52760000     -0.02553760      0.00769297     -0.03090470       1
H              17.14730000     11.36880000     19.29640000      0.19195300      0.24958500     -0.11150300       1
O               3.65245000      3.64707000     24.64810000      0.15403200      0.02152530      0.00497536       8
H               4.61410000      4.54055000     23.23270000     -0.01272670     -0.02415750      0.03533450       1
H               2.14518000      3.63243000     24.03280000     -0.14685500     -0.00078908     -0.04779090       1
O               7.29016000     19.79720000     13.23920000     -0.01126840      0.08783800      0.09677820       8
H               8.69909000     19.37670000     14.26060000      0.00887494     -0.00867097      0.00920488       1
H               7.29414000     18.90150000     11.86450000      0.00190291     -0.07976230     -0.10612600       1
O               6.73467000      8.13280000      0.27597700      0.05393750     -0.09660860     -0.09453270       8
H               6.43392000      6.42733000      1.01314000      0.01678010      0.00203349     -0.03673550       1
H               6.04278000      8.66423000      1.63241000     -0.06792020      0.09640460      0.13064300       1
O               3.99237000     23.81190000     14.86280000      0.04039960     -0.00740251     -0.03536730       8
H               3.46120000     22.43650000     15.88030000     -0.00551779     -0.00476976      0.00792408       1
H               5.48006000     23.02220000     13.95790000     -0.04229830      0.01645960      0.02487620       1
O              23.43320000      3.40279000     23.37960000      0.03167300      0.03797940     -0.04809420       8
H              22.78570000      2.19517000     24.48830000     -0.02661910     -0.02826840      0.00654352       1
H              22.90070000      3.49833000     21.56470000     -0.00365865     -0.00978528      0.05145940       1
O               3.19012000     24.08200000     20.02190000      0.00586960      0.01045570      0.02175800       8
H               3.26428000     25.21460000     21.42820000     -0.03216480      0.02242060      0.00692738       1
H               4.80770000     23.54830000     20.57430000      0.02446490     -0.03398470     -0.01848540       1
O               2.47005000      4.37775000     16.74610000     -0.05743080      0.01887270      0.11961600       8
H               3.42475000      4.17643000     18.42880000     -0.03044880      0.00958123     -0.03812060       1
H               3.72176000      3.93175000     15.77350000      0.08568090     -0.03697000     -0.08308270       1
O               0.77295600      9.25919000     15.19770000     -0.02163050     -0.04664340     -0.04257840       8
H               0.87463600      8.50374000     13.45920000      0.01081610      0.03884970      0.01805390       1
H              -0.17056900      7.72341000     15.64880000      0.00731933      0.02031450      0.02492650       1
O              22.43140000      9.53290000      7.65507000      0.08782020      0.13919500      0.21936100       8
H              21.88600000      8.81939000      6.40373000     -0.09335100     -0.10286100     -0.20525900       1
H              21.64240000     11.18200000      8.00566000      0.01270090     -0.02707280     -0.01644560       1
O              13.42930000     22.25660000     10.21230000     -0.01898790      0.03975610      0.00689157       8
H              13.80040000     24.10190000     10.29250000      0.01305100     -0.02925300     -0.00170779       1
H              11.58600000     22.51780000      9.99422000      0.01763010     -0.02055830      0.00691006       1
O              25.29580000     12.15170000     20.04120000     -0.02048290      0.04497140      0.10277600       8
H              24.35870000     13.73060000     20.68870000      0.02350980     -0.04484260      0.00060814       1
H              24.87810000     12.58540000     18.46980000     -0.00856239      0.00103291     -0.10853000       1
O              17.01830000     12.14690000      0.55707200      0.07270080      0.12126600      0.03851800       8
H              16.09510000     10.80860000      0.88921600     -0.06662500     -0.08741160      0.01890100       1
H              17.14050000     13.02700000      2.36195000     -0.00305439     -0.03273600     -0.05866160       1
O              22.55570000      4.65527000     15.11320000     -0.21904000      0.03171040      0.03096540       8
H              21.82230000      1.09395000     15.74520000     -0.00839094     -0.00541894      0.01124820       1
H              24.05580000      4.23383000     15.04520000      0.21889500     -0.05686710     -0.01851060       1
O              11.62790000     11.10440000     24.00410000      0.16607900     -0.01277210     -0.21643300       8
H              10.56820000     10.95810000     25.09190000     -0.18967400     -0.02684770      0.20184600       1
H              10.95390000      9.90349000     22.69420000      0.01410180      0.03325750      0.02099790       1
O              16.73560000     23.92950000     19.45850000     -0.04897690      0.03140760      0.07764970       8
H              15.58760000     22.70710000     20.43630000      0.03444710      0.01039050     -0.02982140       1
H              16.37470000     25.38150000     20.80840000      0.02239290     -0.03900330     -0.05308230       1
O               9.06448000     14.52750000     18.06730000     -0.01069990     -0.04116460      0.02159040       8
H               9.48545000     16.27960000     18.02530000      0.00025578     -0.00496511      0.01528610       1
H               8.67375000     13.70980000     19.76990000      0.00997506      0.03858150     -0.04335100       1
O              21.51170000     24.58280000     16.67890000      0.04707090      0.00624133     -0.00317623       8
H              19.82520000     23.95450000     17.04050000     -0.00628445      0.00088223      0.01223360       1
H              23.08880000     23.58170000     17.16360000     -0.03337210      0.01163770     -0.01148390       1
O              19.83000000      5.88098000     10.74330000     -0.00327762      0.01398250     -0.00380308       8
H              21.70530000      4.96360000     13.47430000     -0.00900032      0.01605390     -0.02497600       1
H              19.96960000      7.41292000      9.62197000      0.00605651     -0.04000500      0.03172150       1
O              19.51000000     16.87350000      8.23758000      0.02266720      0.00809249     -0.05526630       8
H              18.74920000     16.56390000      9.73162000     -0.02930870     -0.00063429      0.07666530       1
H              18.21890000     16.17730000      7.16759000      0.00272164      0.00088285     -0.02082260       1
O              19.52400000     15.54060000     21.25740000      0.03864630      0.02944360     -0.10437600       8
H              21.15510000     16.41060000     20.93640000     -0.03462430     -0.01198980      0.02448790       1
H              19.11740000     15.06940000     22.82670000     -0.00537995     -0.01825100      0.08290450       1
O              24.25640000     15.54500000      9.21135000     -0.05273270     -0.03675830      0.01422050       8
H              22.72670000     16.49500000      8.80253000      0.00464751     -0.00796054     -0.00874587       1
H              25.56030000     16.64610000      9.30144000      0.05156570      0.04555710     -0.00778542       1
O               1.03657000     12.40170000      0.20414600     -0.03454170     -0.04144960     -0.06171340       8
H              -0.24182900     10.98920000     -0.00691800      0.02466470      0.02462650      0.03346850       1
H               1.08997000     12.57040000     -1.68233000      0.01169840      0.00727724      0.03166350       1
O              15.56240000     15.77760000     17.33200000      0.05427220      0.00160351      0.07719690       8
H              17.31350000     14.87430000     17.84960000     -0.06494440      0.04043110     -0.01470120       1
H              15.12290000     16.83590000     18.99470000      0.01709290     -0.04347390     -0.06356110       1
O               8.88473000     17.61810000      3.28569000      0.20544500      0.08942420      0.01357210       8
H               8.15938000     19.21100000      3.48606000      0.00165350      0.05641000      0.01497540       1
H               7.52005000     16.89340000      3.16274000     -0.19759800     -0.14391100     -0.02441510       1
O               5.73302000      9.26528000      6.65257000     -0.02011810     -0.00660037      0.00257401       8
H               4.75194000      7.81103000      7.25456000      0.02123390      0.00504299     -0.01257740       1
H               7.52276000      8.94074000      6.68930000      0.00332428     -0.01357950      0.00338140       1
O              24.96970000     20.00270000     18.40250000      0.04672470     -0.10621100     -0.12381000       8
H              26.75010000     19.58430000     18.81810000     -0.01687390     -0.00983500     -0.02741100       1
H              24.91450000     20.94470000     19.68510000     -0.03409900      0.11668500      0.15489700       1
O               2.50675000     18.37720000      5.42294000     -0.29986700      0.19280700      0.01065890       8
H               1.71288000     19.49350000      3.24573000      0.04398590     -0.06724440      0.08119450       1
H               3.76880000     17.67770000      4.98720000      0.25281900     -0.13378500     -0.09194760       1
O              12.95400000     13.37610000      9.89064000     -0.00619716      0.07553640     -0.11823300       8
H              11.20570000     13.56330000      9.96482000     -0.02345350     -0.01309500      0.03106490       1
H              13.96250000     12.47710000     10.85530000      0.03974260     -0.06057200      0.08203260       1
O              23.95760000     22.34200000      6.67670000      0.16785200      0.06893930     -0.17114100       8
H              22.89440000     21.87500000      7.73023000     -0.12971300     -0.07871700      0.14210600       1
H              25.42970000     21.25290000      6.22457000     -0.02940970      0.00403481      0.03005100       1
O              10.76930000      7.64554000      5.83679000      0.09742340      0.03965650      0.06430350       8
H              11.41330000      7.03214000      7.67206000     -0.02231760      0.02167220     -0.07019380       1
H              12.36480000      8.99782000      5.55526000     -0.07137150     -0.05719070      0.00863569       1
O               8.48001000     13.30800000     12.24360000     -0.03618130      0.01290890     -0.20365000       8
H               8.03677000     12.71460000     13.64920000     -0.03217320     -0.05435100      0.18547900       1
H               6.78597000     12.36050000     11.33630000      0.05780080      0.05075780      0.01802570       1
