192
Lattice="23.90357 0.0 0.0 0.0 23.90357 0.0 0.0 0.0 23.90357" Properties=species:S:1:pos:R:3:force:R:3 TotEnergy=-1103.51084 cutoff=-1.0 nneightol=1.2 pbc="T T T"
O        0.48253000      21.26189000      21.58624000      -0.05253120      -0.04828750      -0.00182957
H       22.57450000      21.03963000      20.88144000       0.04909320       0.01113120       0.01311630
H        0.84633000      19.44030000      22.13734000       0.00239225       0.03245700      -0.00784049
O        0.22676000      22.65783000       3.11608000       0.04431900      -0.00657200       0.00981522
H        2.04326000      22.91683000       3.75478000      -0.04187420      -0.00605542      -0.02319030
H        0.35286000      21.82893000       1.44854000       0.00413433       0.01028730       0.01532790
O       10.06170000       2.61322000      10.35210000      -0.01569040       0.09594890      -0.06236690
H       10.16130000       4.47863000      10.88910000       0.01489100      -0.03824050       0.00444734
H       10.13160000       1.27824000      11.41950000       0.00866401      -0.05004260       0.05993930
O       17.72205000      14.43805000      23.76894300       0.05165560       0.05949790      -0.02938810
H       19.24474000      14.50681000      22.39939000      -0.04440430      -0.01259790       0.03779680
H       17.65942000      16.27496000       0.48551000      -0.00953298      -0.04905460      -0.01276480
O        7.77980000       6.31493000      17.01180000       0.01169710       0.00865067      -0.02265750
H        7.90540000       7.70563000      18.30200000       0.01254800      -0.00699558      -0.01471570
H        9.18966000       6.45153000      15.71000000      -0.03500490      -0.00543411       0.04262810
O       17.41030000      11.83180000       8.85175000       0.01269300      -0.04340440      -0.03380870
H       17.08069000       9.80476000       8.81149000       0.00185251       0.05721120      -0.00571740
H       18.31984000      12.33220000       7.22926000      -0.01711860      -0.01902670       0.02694390
O       20.44133000       0.00523000      12.90090000       0.03376700      -0.00554685       0.00091982
H       22.30493000      23.64210000      12.88350000      -0.02756990       0.01009880      -0.00314543
H       19.84203000      23.25840000      11.28700000      -0.00502921      -0.00199518       0.00141389
O        2.27128000      18.33704000      11.63080000      -0.05554650      -0.04787140      -0.05281850
H        1.83705000      16.42344000      11.90340000       0.01786870       0.03999640       0.00292537
H        1.12503000      18.49064000       9.96121000       0.03070700       0.01118470       0.05109460
O        6.18713000      14.47814000      22.37650000       0.00659281       0.01118300      -0.01578300
H        7.24863000      15.94034000      21.65910000      -0.01147930      -0.04634510       0.00673149
H        6.13033000      12.86244000      21.42390000       0.01419960       0.03485830       0.00373998
O        8.97807000      18.82844000      21.71124000       0.00406963      -0.01547560      -0.03925270
H       10.67520000      19.52054000      21.53234000       0.00010185      -0.00341961       0.00707058
H        8.03255000      19.29364000      23.12944000      -0.00415616       0.02031750       0.03379140
O       13.41127000       0.37107300       6.77234000       0.00675832       0.00067004      -0.02082970
H       12.16547000       1.34603000       7.62040000      -0.00308060       0.01612290       0.02266800
H       13.43927000       1.13562000       5.08256000       0.00751281      -0.01399500       0.00898142
O       13.44937000       1.37903000       1.82056000      -0.04049390       0.02400020       0.02403710
H       11.72117000       2.14583000       1.45546000       0.02301930      -0.01180370       0.00685357
H       14.29569000       1.22953000       0.27536000       0.01133710      -0.00579897      -0.03604460
O       14.57690000      18.93244000      11.76897000      -0.03223620      -0.00129751      -0.01369670
H       14.27690000      17.56544000      10.49797000      -0.00111959       0.01231070       0.01469040
H       12.95560000      20.01744000      11.79747000       0.03684960      -0.01808710       0.00414838
O        1.08663000      13.24110000      12.68593000       0.02457910      -0.03511790      -0.05102490
H        1.87543000      12.26150000      11.17163000      -0.03012240       0.02760940       0.04028740
H        2.40893000      12.83860000      13.98723000       0.00124365       0.00657480      -0.00383426
O       22.69749000       3.47784000       1.52612000      -0.03121680      -0.00241545       0.02582160
H       22.94753200       1.84899000       2.32222000      -0.01404310      -0.00699143       0.01449740
H        0.30102500       3.39989000       0.65969700       0.04420650       0.01535040      -0.03965550
O       22.50444000      19.21730000       7.60463000       0.21276500      -0.04934820      -0.13288800
H       23.15534000      20.23680000       6.01613000      -0.03964540      -0.02059080       0.05750570
H       21.16914000      19.67320000       8.33503000      -0.16394100       0.07078750       0.06603240
O       14.24254000      10.75150000       1.18143000       0.04547700       0.03997640       0.03441740
H       13.54354000      10.32730000      23.56410000      -0.02577310      -0.02166600      -0.05173050
H       15.53554000      12.08150000       0.65993000      -0.01787100      -0.02187070       0.01183730
O        6.69707000      14.71566000       3.87017000      -0.02485350      -0.01322550      -0.03535840
H        5.79697000      14.09936000       5.40647000       0.01166500      -0.00097357      -0.04338760
H        6.11577000      13.94236000       2.06347000       0.01187220       0.02185080       0.07354320
O       20.28786000      20.70380000      17.62253000      -0.03289030       0.00281074      -0.02203880
H       20.67046000      22.17350000      16.57573000      -0.00300042      -0.00936672       0.00352381
H       18.54976000      20.19060000      16.98383000       0.03563400       0.00459780       0.01634960
O        8.74156000       3.73387000       1.33014000       0.03963380       0.00643151      -0.06835730
H        7.44226000       3.15037000       2.40477000      -0.02237250      -0.01662550       0.00975816
H        8.61516000       3.15747000      23.32085700      -0.01482120       0.00975657       0.05103210
O        7.45783000      19.01290000      11.07747000      -0.01426660      -0.05368800      -0.00089892
H        7.64503000      17.06060000      11.40387000      -0.01154740       0.06174120      -0.01950560
H        5.65183000      19.46420000      10.93777000       0.01298400      -0.02177830       0.00732153
O       10.72417000       7.54064000      11.12336000      -0.02927580       0.00944011      -0.01595990
H        9.32227000       8.30729000      10.05866000       0.03799620      -0.01130390       0.01340910
H       12.34557000       7.68210000      10.24776000      -0.00960550      -0.00020234      -0.00232626
O        7.78669000       2.25505000      20.31784000       0.03800340      -0.01459420      -0.02502100
H        8.94567000       1.00403000      19.42024000      -0.03480950       0.01463900       0.02234980
H        8.01140000       3.69917000      19.16525000      -0.00795739       0.00177985       0.00411633
O       18.35703000       4.98745000      22.52440000      -0.03314580       0.03473360      -0.02611820
H       17.41333000       6.32219000      23.36080000      -0.00263638      -0.00532977      -0.00810321
H       19.36313000       4.44176000      23.83230000       0.04070580      -0.02273850       0.03448610
O       19.64645000      12.38636000       4.05513000      -0.06820170      -0.06649660       0.05764910
H       19.15219000      12.91046000       2.50133000      -0.03090490       0.02288970      -0.06421730
H       21.20052000      12.97626000       4.22033000       0.10277400       0.04209780       0.01762120
O        8.90352000      13.85563000       9.82009000      -0.00114064       0.06988490       0.07939260
H        8.52768000      12.61173000       8.75973000      -0.03384630      -0.07516770      -0.06904340
H       10.69320000      13.87033000       9.76351000       0.02937040       0.01262910      -0.00479509
O        8.27967000      21.74700000      17.47120000       0.04807930       0.00144050       0.02042810
H        6.62697000      21.52700000      16.95460000      -0.04841720      -0.00507054      -0.01408990
H        8.40907000      20.68580000      18.99150000       0.00109657       0.00272898      -0.01109060
O        8.28763000       9.23913000       1.58346000       0.09247230      -0.02132220       0.00003683
H        8.60353000       7.45563000       1.29036000      -0.00499149      -0.00359569       0.00569427
H        6.64983000       9.54943000       1.20676000      -0.08082970       0.01071170      -0.00667237
O       14.04280000       8.70713000      20.05460000      -0.10910800      -0.13265900       0.04323550
H       15.10710000       9.65363000      19.31620000       0.11380100       0.10834300      -0.07611090
H       13.89290000       7.19493000      18.77340000      -0.00537799       0.02692120       0.03597880
O        2.47959000       2.37367000      21.28700000      -0.01306710      -0.06747710       0.00287041
H        1.54419000       0.58477000      21.54820000       0.03407440       0.05884560      -0.01387550
H        4.23416000       1.83317000      20.87230000      -0.01830850       0.00901779       0.00763647
O        0.51961300      14.26840000       4.67736000      -0.01160220       0.00241979       0.03319530
H        0.75972800      14.91010000       3.07579000       0.02291610      -0.00332056      -0.06237130
H        0.01453300      15.88880000       5.29245000      -0.00811560       0.00329757       0.03182740
O        2.13704000       1.11059000      13.44820000      -0.01265340       0.03037130      -0.04246320
H        2.34608000       0.51931700      15.05640000       0.01062800      -0.03970300       0.05291640
H        2.27033000       2.88364000      13.79250000      -0.00387744       0.00872341      -0.00559988
O       12.78394000       5.01036000      16.93364000      -0.04400480      -0.00481812       0.06620710
H       13.62574000       5.05436000      15.47684000       0.05347250       0.00207856      -0.08133030
H       12.84244000       3.27156000      17.45484000       0.00567780       0.00077315       0.00888526
O        5.65033000       1.70926000       4.98637000      -0.03033320       0.01764550      -0.06070750
H        5.17277000       2.57416000       6.41097000      -0.02152460       0.04233180       0.04023010
H        6.56030000       0.48406000       5.78557000       0.04258620      -0.05654500       0.01892680
O       11.89884000      14.20463000       3.71094000       0.03746350      -0.01211610      -0.01743110
H       12.53204000      12.66243000       2.58960000      -0.03096740       0.03925470       0.03067960
H       10.13454000      14.59903000       3.85065000      -0.01638110      -0.01833850      -0.01024760
O       19.61020000      10.54723000      12.99640000       0.06249560       0.02113420       0.01659060
H       21.44790000      11.13723000      13.55840000      -0.06542230      -0.01628380      -0.02991160
H       19.15760000      11.39163000      11.34540000       0.00881885      -0.00677164       0.02111670
O        7.55187000      10.13407000       6.69629000      -0.04246890       0.01300570       0.10783100
H        7.97807000       9.57847000       5.18255000       0.03316280      -0.02740630      -0.09908080
H        5.77887000       9.49597000       6.97053000       0.01496180       0.01391480      -0.00105916
O        2.10474000       6.33394000      17.38350000       0.00765620       0.02607970      -0.02291720
H        2.22194000       5.14686000      18.71690000       0.00421830      -0.02132010       0.01814390
H        3.81354000       6.61643000      16.71460000      -0.00825839      -0.00849293       0.00614600
O        3.00827000       8.78417000       7.95853000       0.00347155      -0.03579540       0.00887527
H        3.73327000       7.07737000       8.70193000      -0.03697190       0.04105220      -0.02928760
H        1.66407000       8.69307000       6.58853000       0.02768900      -0.01752930       0.02747230
O       13.49480000      14.92310000       8.44763000       0.04553510      -0.02079070       0.02721360
H       14.97570000      13.69750000       8.22843000      -0.02499650       0.01981220       0.01848020
H       12.89020000      14.99630000       6.78023000      -0.01569140       0.00214436      -0.03676870
O        3.10587000      20.77520000      16.47143000      -0.01120130      -0.02739510      -0.06239860
H        2.26017000      19.67870000      17.60243000      -0.00526841      -0.00260051       0.01939700
H        2.66657000      19.81616000      14.79053000       0.01720500       0.03230470       0.03698620
O       15.70723000       6.89572000       8.69593000      -0.00635824       0.02787310      -0.05106840
H       16.00433000       6.59331000       6.81573000      -0.02207860       0.00658801       0.01605290
H       16.81813000       5.70100000       9.31043000       0.02337910      -0.03227670       0.03557110
O       15.87869000      12.37054000      16.28840000      -0.09011610       0.02817070       0.03366220
H       17.24557000      11.66894000      15.48382000       0.03813870      -0.03029730      -0.04412700
H       14.15810000      12.05234000      15.49296000       0.05188650       0.00508913       0.01182950
O        5.09106000       3.84447000      10.09977000      -0.01110370      -0.02083140       0.00333222
H        7.03086000       3.47347000      10.29217000      -0.04989530      -0.01543880      -0.00206733
H        3.78946000       2.46297000      10.64297000       0.06030780       0.03486760      -0.01124470
O       18.00620000      21.35279000       8.79910000      -0.04969940      -0.00211575       0.01555880
H       16.51670000      22.30572000       7.95298000       0.03812110      -0.02800850       0.02858520
H       17.17770000      20.16278000      10.17220000       0.00515382       0.03923230      -0.03961760
O       14.04294000      20.19729000      20.48903000       0.04038470      -0.04310530       0.00770238
H       15.34414000      18.94761000      19.23453000      -0.05934790       0.03616490       0.03750350
H       14.13514000      19.65709000      22.34613000       0.00897012       0.00676922      -0.04287490
O        4.52230000      12.93927000      15.87876000       0.05871030      -0.00971450       0.03148850
H        3.89696000      12.26517000      17.51989000       0.00815005       0.00614643      -0.01409840
H        6.53770000      12.64647000      15.90820000      -0.06164790      -0.00069172      -0.00731877
O       23.14420000      16.39560000      17.01630000      -0.11686400       0.10474500       0.13366400
H       22.06210000      17.88460000      16.46610000       0.02277990      -0.02725000       0.01208200
H        0.08453000      15.77160000      15.82690000       0.09579600      -0.06997820      -0.14658000
O       10.61070000      22.02590000      12.75477000       0.03264030       0.02587000      -0.02673390
H       10.15140000      22.03040000      14.44086000      -0.00042436       0.00349256       0.05757710
H        9.21088000      21.07420000      12.18027000      -0.02138120      -0.02229250      -0.02102290
O       23.40240000       8.30026000       3.86663000       0.01661860      -0.02790460      -0.00651566
H       22.02510000       9.41416000       4.12393000      -0.02276080       0.00054931      -0.00216272
H       22.90270000       6.58156000       3.22353000       0.00260638       0.02653510       0.00901127
O       15.57326000       6.17677000       3.67023000      -0.04490520      -0.00885855      -0.04476660
H       14.57965000       7.81513000       3.05595000       0.03175750      -0.05772510       0.01197740
H       14.81678000       4.43064000       2.83632000       0.01883260       0.06581200       0.02975450
O       15.92880000      17.58994000      16.86020000       0.09651830      -0.07269890       0.13765500
H       15.08210000      17.95634000      15.49580000      -0.06785510       0.01444070      -0.11317400
H       16.25210000      15.64754000      17.26090000      -0.02094770       0.05323750      -0.03365020
O        1.65060000      16.21140000      23.35983000      -0.05433580      -0.02346120      -0.05255170
H        3.18380000      15.76630000      22.54883000       0.05541020       0.00166466       0.01318260
H        0.81243100      15.15850000      21.95013000      -0.00990684       0.02872580       0.04605100
O       14.32233000      18.78493000       1.70789000      -0.00806528      -0.02602920      -0.00360871
H       13.86023000      20.27153000       2.50625000       0.00273853       0.04785420       0.01455680
H       13.03733000      17.73483000       2.49543000       0.00862380      -0.02322550      -0.00911989
O       21.59330000      13.40670000      20.46244000      -0.03477580      -0.08693170       0.01864470
H       20.83510000      11.56060000      19.93994000       0.02846970       0.06320940       0.00815408
H       21.82170000      14.40360000      18.98234000       0.00290940       0.01337380      -0.02859060
O        6.12077000      19.84503000       2.63448000      -0.00724641       0.14961800      -0.10955200
H        5.62987000      18.35443000       2.90377000      -0.04739920      -0.17413100       0.03852440
H        7.14897000      20.40743000       3.83867000       0.05538060       0.02596680       0.06894470
O        8.73517000      22.17514000       6.93863000      -0.15284500      -0.06543880      -0.00382331
H        8.64998000      20.84344000       8.15833000       0.00078266      -0.00536543       0.00642937
H       10.21930000      22.80634000       6.87883000       0.14877000       0.05334320      -0.00457706
O        3.59088000      10.53823000       1.44220000      -0.04957410      -0.01206290       0.05503790
H        1.93264000      10.06983000       2.41198000       0.05133200       0.00426493      -0.01359840
H        2.85163000      10.64873000      23.76203800      -0.00427559       0.00332648      -0.04658440
O        9.19907000      11.54597000      14.49820000       0.00197312       0.01130050       0.06990870
H        9.70287000       9.82167000      14.52210000      -0.00170603       0.00564561      -0.02729530
H        8.97337000      12.58747000      13.07980000       0.00535122      -0.00824765      -0.04468790
O       17.71089000       4.70541000      13.50230000       0.01029110       0.11797900      -0.00956942
H       18.93688000       6.35942000      13.31850000      -0.05108300      -0.06437970       0.01013270
H       18.75137000       3.32644000      13.51970000       0.03814710      -0.04874180      -0.00085777
O        2.52493000      10.75907000      20.03450000      -0.04697180      -0.03381300      -0.02742690
H        0.85103000      11.62377000      20.31019000       0.02778280      -0.01735260      -0.00807883
H        2.05013000       9.05827000      18.94190000       0.01461560       0.04698370       0.03539480
O       20.44010000       8.21031000      18.30523000       0.02447660      -0.03700070       0.00556401
H       19.89380000       7.00186000      19.67813000       0.01086330       0.01737610      -0.02652500
H       21.81020000       7.28547000      17.30043000      -0.03615660       0.02458280       0.03014230
O       15.13320000       1.55903000      20.59443000      -0.01694710      -0.09734740      -0.03556880
H       16.29920000       2.66513000      21.22203000       0.04787660       0.04163910       0.01537050
H       16.05620000      23.75810000      20.15863000      -0.03750670       0.05355600       0.01747390
O        8.91627000      10.00910000      20.27470000       0.04181480      -0.00610136       0.06112670
H       10.83747000       9.93423000      19.98960000      -0.04028920       0.00009318       0.00200286
H        8.90057000       9.82664000      22.31830000      -0.00336418       0.00476584      -0.06019320
