192
TotEnergy=-1103.48445000 cutoff=-1.00000000 nneightol=1.20000000 pbc="T T T" Lattice="25.95012000       0.00000000       0.00000000      -0.00000100      25.95012000       0.00000000      -0.00000100      -0.00000100      25.95012000" Properties=species:S:1:pos:R:3:force:R:3:Z:I:1
O              11.89180000     13.72080000      7.69830000     -0.01208890      0.01089510     -0.02426590       8
H              11.09430000     14.19590000      6.05749000      0.01434180     -0.00423730      0.02614210       1
H              13.48020000     13.01390000      7.19582000      0.00635026     -0.00175313     -0.00454101       1
O              15.37100000     14.61940000     12.64050000     -0.00825349     -0.00269517     -0.00004761       8
H              14.14120000     14.10760000     11.39840000      0.00212847     -0.00095338     -0.00208483       1
H              15.55860000     13.12840000     13.66560000      0.00209438      0.00552111     -0.00156529       1
O              15.66930000     19.56530000     18.76790000      0.01363480      0.02180540      0.02034500       8
H              14.46290000     18.81090000     17.64870000     -0.00375008      0.00948544      0.00951320       1
H              15.08680000     21.15530000     19.62470000     -0.00424483     -0.03627560     -0.02837260       1
O               7.77711000     10.26730000      8.41950000      0.00718222     -0.00087015      0.00587313       8
H               9.50966000      9.83303000      8.08141000     -0.00430429      0.00446778     -0.00146175       1
H               7.83236000     11.82820000      9.35694000     -0.00039881     -0.00400477     -0.00046727       1
O              12.95500000     16.68620000      2.35720000     -0.00135737      0.00067277      0.00933116       8
H              13.34690000     15.88030000      0.78405000      0.00388789     -0.00526608      0.00150952       1
H              12.86980000     18.47820000      1.95317000     -0.00358945     -0.00844911     -0.00317606       1
O               4.79088000     23.31280000     17.65010000     -0.02428090     -0.02538170      0.03397930       8
H               3.24001000     22.35360000     16.98130000      0.02348440      0.02892120      0.00271627       1
H               4.58944000     22.95990000     19.53970000      0.01025220      0.01823370     -0.02132450       1
O               0.12578900     10.64670000     12.48100000     -0.00409667      0.01569070      0.01624290       8
H              25.74640000     12.17760000     13.46280000      0.00233815     -0.01438630     -0.00760801       1
H              -1.47941000      9.81161000     12.45260000     -0.00020505      0.00024525     -0.00589657       1
O              19.56130000     -0.32052500     22.10620000      0.01196320      0.00054095     -0.00198806       8
H              20.00960000     24.54680000     20.68490000     -0.00387108      0.00365224      0.00516274       1
H              21.15850000      0.43360800     22.65670000     -0.01010180     -0.00428214     -0.00289782       1
O              -0.45202900      6.74972000      0.97893900      0.00721407     -0.00753092     -0.00473763       8
H               1.06906000      5.99127000      1.62475000      0.00206064      0.00475914     -0.00291756       1
H              26.19700000      7.99176000     -0.18676700     -0.00257811     -0.00036787      0.00894965       1
O              -0.38130600     14.94000000     19.55860000      0.00284095      0.00498772      0.01176680       8
H               0.51069600     16.16110000     20.59180000     -0.00122670     -0.00857033     -0.00880552       1
H              24.22140000     14.43190000     20.68450000      0.00607013     -0.00119856      0.00347272       1
O              17.22180000     10.87680000      7.25590000     -0.00130859     -0.01018890     -0.01719740       8
H              17.26830000     10.10660000      5.56139000     -0.00474406      0.01020430      0.01258980       1
H              18.72810000     11.89500000      7.27299000     -0.00288394     -0.00504736      0.00031437       1
O               5.10838000      0.23725400     22.27890000     -0.00581045      0.01297970     -0.00149538       8
H               4.21089000      0.81850500     23.78060000      0.00486434     -0.01077930     -0.01088870       1
H               5.84103000      1.82540000     21.67520000      0.00262860     -0.00441446      0.00849329       1
O               2.71905000     16.82650000      3.84960000     -0.01543930     -0.00218688     -0.00636681       8
H               2.44789000     17.81480000      5.32834000      0.01381980      0.00640713      0.00701155       1
H               4.41362000     16.97930000      3.17301000      0.00351721     -0.00181182      0.00346584       1
O               7.49640000      5.32018000     22.03300000     -0.00907953      0.00276899     -0.00651845       8
H               6.20460000      6.54223000     22.60570000      0.00790087     -0.00023147      0.00398419       1
H               7.76184000      5.74084000     20.27990000     -0.00330938      0.00335612      0.00391025       1
O              20.78280000      5.84634000     10.43120000     -0.00848056      0.00261977     -0.00224995       8
H              21.21580000      5.03465000      8.83450000     -0.00153846      0.00377111      0.00186540       1
H              19.51100000      7.10308000     10.00470000      0.01013270     -0.00533179      0.00101924       1
O              12.58670000      8.14898000     23.60980000     -0.00122523     -0.00570361     -0.01093020       8
H              11.35660000      6.84722000     23.23350000     -0.00092630      0.00851480      0.00544300       1
H              12.11040000      9.57658000     22.54890000      0.00501041     -0.00383430      0.00480501       1
O               5.21071000      6.02927000      9.91839000      0.00198625     -0.05260160      0.01664280       8
H               5.77770000      7.65931000      9.54615000      0.00308595      0.03048380     -0.00473784       1
H               3.43478000      5.83826000     10.18300000     -0.00143378      0.01280110     -0.00010672       1
O               4.19733000      4.89194000      3.92667000     -0.00751609     -0.00465835     -0.00174659       8
H               3.27740000      3.31137000      3.82782000     -0.00087019      0.00935309      0.00264614       1
H               3.07242000      6.27518000      4.41026000      0.01446330     -0.00742218      0.00051805       1
O              -0.06180100     21.16270000      0.35635200     -0.03927860     -0.00137778     -0.00452386       8
H               0.20699200     20.20900000      1.88804000      0.00420970     -0.00546284     -0.00596208       1
H              24.03210000     20.92320000      0.05152800      0.03814810      0.00450509      0.01020330       1
O              10.93090000     18.50540000     13.69890000      0.01433700     -0.00057810     -0.00737908       8
H              11.68560000     19.48970000     15.02070000     -0.00483104     -0.00447404     -0.00176948       1
H              12.31630000     17.43400000     13.12740000     -0.00691718     -0.00041086      0.01001530       1
O               4.92142000      7.65172000     16.12020000     -0.00551118     -0.00073790      0.00043563       8
H               4.50191000      9.23248000     16.94760000      0.00702568     -0.00757657     -0.00380641       1
H               3.68894000      7.48615000     14.78390000      0.00579811      0.00256778      0.00341654       1
O              13.04280000     12.59600000     20.25860000     -0.00073055      0.00500115     -0.00847605       8
H              13.99480000     11.88710000     18.86000000     -0.00338951      0.00289170      0.01033770       1
H              11.73630000     13.70320000     19.56270000     -0.00193850     -0.00778496     -0.00028303       1
O              11.39560000     20.87160000      0.18117500     -0.00283591      0.01030070     -0.00567964       8
H              12.60580000     22.05940000     -0.48117400     -0.00256212      0.00193343      0.00183103       1
H              10.61100000     21.70250000      1.64605000      0.00438122     -0.00044809     -0.00288535       1
O               9.80147000     22.49720000      4.63118000     -0.00562934      0.00470200      0.00520944       8
H              10.50460000     21.44750000      5.96414000     -0.00028012      0.00066864      0.00012397       1
H               8.97170000     23.89120000      5.46522000      0.00457513     -0.00219644     -0.00333321       1
O               6.83348000     18.71310000     23.16570000      0.00855449      0.01121610      0.00407200       8
H               7.74717000     19.10080000     24.72780000     -0.00961398     -0.00232211     -0.01355040       1
H               7.46839000     19.99750000     22.06040000      0.00144816      0.00265939      0.00115516       1
O               0.86243300     -0.07260700      9.52547000      0.00484903     -0.00614303      0.00089979       8
H              -0.74257200      0.72054800      9.77965000      0.00435359      0.00708546     -0.00378580       1
H               1.44769000      0.47198300      7.88355000     -0.00475447     -0.00413103      0.00289991       1
O              19.84760000     20.84690000      1.14720000      0.01158390      0.00767402     -0.00889212       8
H              20.12770000     19.98760000     25.50980000     -0.00525545      0.00280609      0.00636824       1
H              20.29570000     22.59090000      0.80218200     -0.00850217     -0.00845725     -0.00214721       1
O              15.99600000     14.84570000     24.06800000     -0.00258233      0.00931780     -0.00410629       8
H              14.83620000     15.07320000     22.66290000      0.00820501     -0.00566126      0.00196696       1
H              16.45160000     16.49970000     24.66820000     -0.00109922     -0.00311780     -0.00250379       1
O              17.09910000      4.88741000     21.27720000     -0.01023110      0.01125820      0.00327762       8
H              16.99530000      3.07971000     21.10420000      0.00072900      0.00026613      0.00786951       1
H              15.79800000      5.48315000     22.46160000      0.00995725     -0.00715781     -0.01252750       1
O              14.01850000      8.72081000     11.06960000      0.00654484      0.00958015     -0.00153180       8
H              14.89250000      9.45144000      9.60804000     -0.00226068     -0.00788583      0.00926102       1
H              13.37480000      7.11727000     10.56090000     -0.00010349     -0.00267193     -0.00445992       1
O              17.93180000     23.85060000      8.85979000     -0.00625119      0.00386534      0.00073006       8
H              16.29990000     23.05380000      8.64544000      0.00618685     -0.00098581      0.00088594       1
H              17.49700000     25.53810000      9.43567000     -0.00417667     -0.00426331      0.00429837       1
O               9.20710000      2.22799000      6.77976000     -0.01186470      0.00317110     -0.00166892       8
H               8.42289000      2.81081000      8.31807000      0.00017735      0.00202068     -0.00432332       1
H               8.24739000      3.12521000      5.49313000      0.00185056     -0.00251340      0.00597793       1
O              22.59890000     17.03030000     11.75530000      0.00638001      0.00326599      0.00659849       8
H              22.22020000     16.19680000     13.33190000     -0.00021328     -0.00014558     -0.00326001       1
H              22.72670000     18.80690000     12.18030000     -0.00633497     -0.00531446     -0.00393837       1
O              21.93720000     13.99180000     23.95090000     -0.00408003      0.01041500      0.00138410       8
H              22.18660000     14.63930000     -0.26843600      0.00681775     -0.00999909     -0.01487440       1
H              20.15060000     13.78690000     23.72950000     -0.00424377      0.00028940      0.00431074       1
O              12.16790000     19.85830000      8.57754000      0.00795187     -0.00182104      0.00375463       8
H              13.19520000     18.40240000      8.18283000     -0.00725921      0.00162570     -0.00150332       1
H              11.44580000     19.52820000     10.23080000     -0.00076208      0.00220230     -0.00598743       1
O              17.40500000     10.63880000      1.36225000     -0.01969350     -0.01200680     -0.02429660       8
H              18.98310000      9.96112000      0.78588100      0.00311887      0.00031694     -0.00275961       1
H              16.23900000     10.39960000     -0.11376800      0.02058270      0.00679172      0.03211850       1
O              24.64880000      1.28051000     23.36720000      0.00463289      0.00525213     -0.00713268       8
H              -0.75085200      1.10907000     21.63430000      0.00019961      0.00465824      0.00781198       1
H              25.18650000      2.96197000     23.86160000     -0.00510436     -0.00306884      0.00042001       1
O               4.70383000     13.13710000     17.46600000     -0.00683755     -0.00974935     -0.00598943       8
H               4.62145000     13.14710000     15.63530000     -0.00571922     -0.00126802      0.00544438       1
H               3.05522000     12.75160000     18.17300000      0.00420448      0.01157780     -0.00365198       1
O               0.18600300      4.87573000     12.48480000     -0.01317300     -0.00039982      0.00224877       8
H              -0.31851600      5.44721000     14.14500000      0.00540812     -0.00201756     -0.00517313       1
H              24.65220000      5.19575000     11.45130000      0.00658913      0.00144112      0.00629332       1
O              12.98020000      2.56827000     15.91360000     -0.01478060      0.00811793      0.00313076       8
H              11.22690000      2.90703000     15.37740000      0.01615900     -0.00467884     -0.00186186       1
H              13.58600000      4.15804000     16.54610000      0.00070931     -0.00398506      0.00289962       1
O               8.89647000     15.55810000     18.62740000      0.04015490      0.01734270     -0.00098841       8
H               8.81523000     17.03220000     19.68590000     -0.00998213     -0.01257660      0.00076288       1
H               7.29874000     14.75450000     18.46510000     -0.02071440     -0.00519601      0.00523921       1
O              16.15880000      9.16122000     17.12740000     -0.00476206      0.01458260     -0.01474620       8
H              16.13840000      7.56220000     17.96840000     -0.00268615     -0.00465464      0.00340114       1
H              15.02440000      9.17201000     15.67850000      0.00950705     -0.01199480      0.00882154       1
O               9.08784000      2.75933000     12.75530000     -0.02798680     -0.02784460     -0.00545753       8
H               7.64689000      3.88924000     12.95040000      0.00452167      0.00351755     -0.00884227       1
H               8.31597000      1.14784000     12.07980000      0.02794190      0.04641270     -0.00366825       1
O               6.01570000     24.24100000     12.16000000      0.01457440      0.04597110      0.03686280       8
H               5.02875000     25.16660000     17.41550000     -0.01684290     -0.02414760      0.00039704       1
H               4.53916000     25.32520000     11.99380000     -0.00420060     -0.00972626     -0.01313600       1
O              22.43820000      3.25045000      6.09326000      0.00640850      0.00774129     -0.01651100       8
H              23.16290000      4.36722000      4.79499000     -0.00965875     -0.00685941      0.01307560       1
H              20.94520000      2.52189000      5.32076000      0.00221276      0.00126566     -0.00240172       1
O              22.08430000      8.15830000     23.17000000      0.00019798     -0.00195186     -0.00867741       8
H              22.21650000      9.13185000     21.63390000     -0.00629690     -0.00312866      0.00960455       1
H              20.96260000      6.75609000     22.85390000     -0.00048236      0.00519389     -0.00450167       1
O              21.76490000     22.64570000     12.58410000      0.01266940      0.01832460     -0.00662899       8
H              20.09560000     23.16800000     12.03260000      0.00231173     -0.00693948     -0.00675310       1
H              22.89260000     23.77630000     11.64070000     -0.01206550     -0.01668690      0.01114610       1
O               1.01402000      0.04491400      3.47971000     -0.01423110      0.00436574      0.00146452       8
H               0.80092000     24.71720000      2.18657000      0.00078076      0.00020405      0.00169067       1
H              25.26440000      0.68245400      3.78583000      0.01266240     -0.00597893     -0.00249005       1
O               3.25890000     10.29180000      5.98291000      0.00016578      0.01136240      0.00484024       8
H               4.74557000     10.09460000      7.03525000     -0.00358752     -0.00122405     -0.00891899       1
H               3.82195000     11.60000000      4.83348000     -0.00544379     -0.00970777     -0.00521725       1
O              24.07580000     14.90470000      2.66314000     -0.00230188      0.00110411      0.00581625       8
H              23.64880000     13.36650000      3.53412000      0.00142254      0.00356716     -0.00622485       1
H              -0.12492500     15.32090000      3.08654000     -0.00209804     -0.00300717     -0.00765488       1
O              16.05820000      2.08573000     11.62810000      0.01794230     -0.01007110     -0.02695950       8
H              14.60000000      2.29637000     12.63630000     -0.00806214      0.00501273      0.01803790       1
H              17.35840000      3.25561000     12.07050000     -0.00182312      0.00698316      0.00438390       1
O               0.32558700     20.25510000     19.53180000     -0.00753281      0.01470300      0.00464435       8
H               0.13938600     20.50510000     21.34410000      0.00471731     -0.00027981     -0.00786197       1
H              24.53410000     20.24660000     18.91850000      0.01107080     -0.00111378      0.00273807       1
O              20.46670000     22.13330000     17.96960000      0.00172185     -0.00860655     -0.00588435       8
H              19.08800000     20.91340000     17.79310000      0.00595164      0.00752296      0.00252153       1
H              21.10400000     22.44860000     16.27540000     -0.00510293     -0.00058727      0.00428338       1
O              14.59300000     -0.06306900     25.48220000     -0.00196944      0.01180500     -0.00142324       8
H              13.75560000      0.54232000      1.03405000      0.00571848     -0.00688439     -0.00635504       1
H              16.20060000      0.81615600     25.48790000     -0.00720769     -0.01114140      0.00055453       1
O              22.44350000     12.53550000      7.32008000     -0.00108652      0.00948530      0.00705272       8
H              21.58560000     13.98950000      8.01850000      0.00621712     -0.00029978      0.00128324       1
H              24.10280000     13.21320000      7.00091000     -0.00102203     -0.00685434      0.00390156       1
O               0.19408700      5.57291000     19.14210000     -0.00747094      0.00858413      0.01021720       8
H              24.41380000      6.14619000     19.23950000      0.00533349     -0.00546017      0.00089214       1
H               0.95623600      6.49743000     20.54130000      0.00069676     -0.00472191     -0.00999979       1
O               7.10998000     15.64250000      1.38873000      0.01814260      0.01217740     -0.00353365       8
H               8.76468000     16.27630000      0.82741000     -0.01854180     -0.01384900      0.01126900       1
H               6.25998000     14.96590000     -0.07725100      0.00335742     -0.00915313      0.00200936       1
O              12.02820000     23.43450000     18.03850000     -0.00303673      0.00439697     -0.01466750       8
H              12.07050000     22.95580000     16.26760000      0.00036742      0.00511846      0.01212180       1
H              12.55380000     25.18860000     17.95240000     -0.00047733     -0.00171409      0.00190857       1
O               3.09532000     18.84150000      9.01621000     -0.01636440     -0.02130420      0.01329420       8
H               2.03441000     17.49440000      9.74674000      0.00950086      0.02009150     -0.01063960       1
H               2.50036000     20.35490000      9.81800000      0.00069056      0.00182906     -0.00224199       1
O               4.69316000     10.04110000     -0.78235000      0.00587248     -0.01441100     -0.01545850       8
H               7.05843000     -0.50739600     13.25770000     -0.02794830     -0.04984320     -0.01349070       1
H               6.41219000      9.39771000     -0.85367900     -0.01049920      0.00815682      0.00655417       1
O              21.84130000     12.74310000     16.74560000     -0.00061113     -0.00723066     -0.01015150       8
H              21.45010000     11.00240000     16.37610000     -0.00528645      0.00834887      0.00635996       1
H              21.41670000     13.05960000     18.47650000     -0.00256525     -0.00332139     -0.00304950       1
O              13.71700000      4.36946000      5.31688000      0.04993890      0.01854560     -0.04529370       8
H              13.32780000      3.50816000      3.75954000     -0.00115168      0.00809151      0.00927941       1
H              12.62930000      3.73153000      6.48889000     -0.04383160     -0.02529620      0.03618880       1
O               4.62186000     13.42320000     11.46960000     -0.00676908      0.00816178      0.00022741       8
H               3.17521000     12.94300000     10.43720000      0.00985486     -0.00038168      0.00666501       1
H               4.71524000     15.24350000     11.45310000      0.00212029     -0.00584698     -0.00435451       1
O              17.71660000      0.35679400      3.85428000      0.01406230      0.00164302      0.00944694       8
H              16.97070000      1.07328000      5.35941000     -0.00141425     -0.00329311     -0.00651933       1
H              18.54450000     -1.18260000      4.40421000     -0.01082580      0.00597853      0.00134756       1
