192
TotEnergy=-1103.37286000 cutoff=-1.00000000 nneightol=1.20000000 pbc="T T T" Lattice="24.54414000       0.00000000       0.00000000      -0.00000100      24.54414000       0.00000000      -0.00000100      -0.00000100      24.54414000" Properties=species:S:1:pos:R:3:force:R:3:Z:I:1
O              22.98780000     -4.34051000    -28.52030000      0.00751301      0.00649674      0.01486490       8
H              21.66540000     -3.70417000    -29.58220000      0.00177828     -0.00041837     -0.01114800       1
H              24.32800000     -5.16376000    -29.48880000     -0.01508440     -0.00339011     -0.00102578       1
O              46.71450000     44.97950000      1.27301000      0.00547865      0.02241280      0.02923290       8
H              47.09810000     46.80370000      1.57700000     -0.01097770     -0.03043380     -0.01639790       1
H              46.90930000     44.69070000     -0.49194400      0.00922350      0.00611946     -0.02243390       1
O              11.69590000      2.21979000     14.47180000     -0.00827795      0.01332930     -0.07424600       8
H              12.44450000      2.90735000     15.86880000      0.03298330      0.02423310      0.05655640       1
H              10.83270000      0.79648500     14.96790000     -0.02535810     -0.04011010      0.01155490       1
O              -4.64759000    -11.84450000     -0.76343500      0.00344594     -0.02075240      0.04331630       8
H              -4.19594000    -12.95610000     -2.14614000     -0.00201935      0.03036780     -0.01973910       1
H              -5.41308000    -10.17980000     -0.71442400      0.00131791     -0.00498035     -0.02807880       1
O               4.96697000     32.53120000     18.00700000      0.03740840      0.01688860      0.02539150       8
H               6.06907000     33.50980000     19.30060000     -0.01669390     -0.03234910     -0.02880680       1
H               6.17204000     31.74580000     16.78490000     -0.01050540      0.01836920      0.01369340       1
O              -4.49950000     11.22800000      8.93811000      0.06723900      0.08906040     -0.03405050       8
H              -5.50987000      9.95399000      9.35410000     -0.05815830     -0.08034460      0.02262450       1
H              -3.89401000     11.12630000      7.19090000     -0.00543943     -0.00296926      0.01398310       1
O              45.62520000     25.31200000     13.14960000      0.05211610      0.06247100      0.04537210       8
H              47.13630000     26.67200000     13.92800000     -0.04455020     -0.06081010     -0.04553920       1
H              45.58650000     25.18380000     11.33040000      0.00159667      0.00206417     -0.00407974       1
O              -0.49686600    -28.67000000      9.10425000     -0.00153883      0.03013330      0.07595150       8
H              -0.22579500    -29.42210000      7.56236000     -0.00355171     -0.02105930     -0.05333840       1
H              -1.93390000    -27.53910000      9.26581000      0.00398724     -0.00982919     -0.02284230       1
O              31.69520000    -34.41350000     20.48880000      0.04594800      0.03530470      0.03635300       8
H              32.97850000    -32.75990000     21.18890000     -0.04750730     -0.07825530     -0.01824250       1
H              31.65210000    -35.91600000     21.73430000      0.01046340      0.04253870     -0.03071730       1
O              10.23860000    -30.40360000    -26.39470000     -0.00197065      0.00179489      0.04101950       8
H              11.83360000    -29.75470000    -26.96400000      0.01275410      0.00104849     -0.00798922       1
H              10.48000000    -30.52780000    -24.47300000     -0.01327420     -0.00640850     -0.03037660       1
O              -8.37135000      3.71962000      8.13977000      0.00539138      0.04570060     -0.04591150       8
H              -9.75989000      3.45289000      6.93050000      0.00832489     -0.01200910      0.02307150       1
H              -8.06271000      2.79865000      9.64574000     -0.01894040     -0.03615380      0.00650506       1
O             -11.59500000     28.14080000     52.38780000     -0.03867240     -0.01773830      0.00596639       8
H             -13.56230000     28.70270000     52.79760000      0.07116560     -0.04306360     -0.02287750       1
H             -11.35450000     26.41300000     51.48760000     -0.02311310      0.05801270      0.02397790       1
O              15.38500000    -29.03440000    -14.24000000      0.05479600     -0.00476468     -0.13061100       8
H              16.08470000    -30.67650000    -15.25680000     -0.01797490      0.05375360      0.01484490       1
H              14.88090000    -29.85440000    -12.90880000     -0.04044880     -0.05358980      0.11519600       1
O              28.43590000     15.79980000     37.57580000      0.06388260     -0.08512060     -0.02547700       8
H              28.44230000     14.40070000     36.03100000     -0.00795369      0.04646360      0.06645590       1
H              30.29660000     15.09310000     38.64080000     -0.06381060      0.01259730     -0.04123840       1
O              -1.33911000      1.14753000      0.64686700      0.05285030     -0.02578510      0.04391650       8
H              -1.35866000      1.12772000      2.60631000      0.00708653      0.01448770     -0.04960040       1
H               0.49176000      0.67893700      0.02877500     -0.04592970      0.01565190      0.01586740       1
O             -28.78860000     24.00960000     32.67480000     -0.07431430      0.07041260     -0.04194830       8
H             -28.56970000     25.73500000     31.57690000      0.00940248     -0.06575080      0.04131140       1
H             -30.77970000     24.01490000     32.71130000      0.06689990     -0.00965886      0.00495720       1
O             -33.83310000     10.50450000     24.65020000      0.02482800      0.00159289     -0.00962218       8
H             -34.95960000      9.93668000     23.37910000     -0.01907680     -0.01131810     -0.00985069       1
H             -32.37100000     10.89250000     23.57070000     -0.00451491      0.00554000      0.01712140       1
O             -19.49340000     64.48980000    -20.67240000      0.09334940      0.21201000      0.16466300       8
H             -18.74550000     63.46870000    -19.48500000      0.02100720     -0.03031750      0.04104640       1
H             -20.09530000     63.56670000    -21.71770000     -0.11119600     -0.17533700     -0.20068700       1
O              68.81610000     21.87550000     40.72460000     -0.03127490      0.03633970     -0.02924410       8
H              68.82750000     23.63370000     39.53540000      0.01588510     -0.05908760      0.02787230       1
H              67.15570000     21.13430000     40.35010000      0.01305860      0.00954973      0.01044600       1
O              56.95540000    -20.92570000      3.80383000     -0.04941760     -0.00797347      0.01110790       8
H              55.45500000    -21.03420000      5.12158000      0.03911170     -0.00862186     -0.04401960       1
H              56.63240000    -21.92860000      2.22034000      0.00160478      0.01376730      0.03291530       1
O              30.97690000     19.37500000    -13.19000000      0.03736170     -0.00860054     -0.01858580       8
H              32.64040000     18.83710000    -13.88090000     -0.02982040      0.01020730      0.00757454       1
H              29.98480000     17.77430000    -13.08790000     -0.00160109      0.01104040      0.01209400       1
O             -15.99660000      7.14076000     63.57050000      0.02453660      0.03522400     -0.07234650       8
H             -15.77440000      8.73640000     62.31120000     -0.00109937     -0.05700790      0.05617910       1
H             -14.77800000      5.86376000     62.87630000     -0.02156720      0.01902550      0.01650690       1
O               9.36936000      0.31872500     -1.06823000     -0.00512182      0.04491160      0.00919133       8
H              11.12800000      0.28350700     -1.33670000      0.03302660      0.03110370      0.00165120       1
H               9.26115000     -1.37441000     -1.30169000     -0.03311710     -0.07197250     -0.00625778       1
O              44.25930000      4.03420000     23.56070000     -0.01552150      0.04683580      0.05026330       8
H              44.41630000      4.99989000     25.28850000     -0.03140490     -0.00802514     -0.04906360       1
H              45.78000000      3.17993000     23.88330000      0.03243480     -0.03875200     -0.00423764       1
O              -2.11115000     61.48930000     28.72200000     -0.01052810     -0.00615225     -0.00316773       8
H              -3.37244000     61.27450000     27.36970000      0.01385210      0.01017320      0.00558511       1
H              -2.09770000     63.24730000     29.26710000      0.00395404     -0.00356562     -0.01036520       1
O              10.66800000     39.49690000      9.59459000      0.01480070      0.00360436     -0.00214820       8
H              10.23790000     37.98220000      8.66203000     -0.01199130      0.01413260     -0.00867452       1
H              12.26870000     40.11240000      8.92571000     -0.00790013     -0.00671202     -0.00037585       1
O             -18.78580000     20.65580000     20.60870000     -0.04068260     -0.04818770     -0.03900740       8
H             -20.09430000     19.15240000     19.44460000      0.05392230      0.04466080      0.05591640       1
H             -17.43000000     19.88940000     21.64670000     -0.02091230     -0.00345467     -0.01908810       1
O              31.46460000     33.33890000     51.84730000      0.13931200     -0.04943700      0.01383580       8
H              31.79820000     31.52160000     52.24200000     -0.00503516      0.02262280     -0.00647952       1
H              29.83960000     33.56890000     51.72580000     -0.13202900      0.02223590     -0.01065470       1
O              12.96840000     33.51800000     19.92880000     -0.03095940      0.06228770     -0.02407720       8
H              12.20980000     34.45890000     18.44620000      0.02346990     -0.01631100      0.03425660       1
H              12.91710000     31.84460000     19.36230000      0.00737867     -0.04034690     -0.00939360       1
O               2.32461000    -24.89250000     22.07800000      0.10756600      0.08685860      0.03202850       8
H               1.05783000    -25.88190000     21.79820000     -0.11549500     -0.08640610     -0.03275160       1
H               3.77147000    -26.01640000     21.93130000      0.00896511     -0.00386921     -0.00401762       1
O               0.16269600     17.49850000      4.74276000      0.03065900     -0.00599166     -0.02190320       8
H               1.91873000     16.78770000      4.41804000     -0.03309910      0.01553690      0.01056430       1
H              -0.25537700     18.49810000      3.20533000     -0.00212923     -0.01035000      0.01791300       1
O               1.01668000      3.13812000     14.24230000     -0.04234110      0.01212240     -0.07678890       8
H               2.41761000      2.30423000     13.58350000      0.01923440     -0.03723200     -0.01501970       1
H               1.42337000      3.40817000     15.87970000      0.01979930      0.01780660      0.08735220       1
O             -34.85980000     53.33090000    -30.76030000      0.04012820     -0.00397818      0.02511420       8
H             -33.06640000     53.64130000    -31.35960000     -0.03938760     -0.00317490     -0.01093140       1
H             -34.43270000     52.49680000    -29.14690000     -0.01729430      0.00046305     -0.00914863       1
O               3.41886000     52.20490000    -17.02320000     -0.03093880     -0.09806830     -0.06067280       8
H               3.99678000     53.27180000    -15.84500000      0.02508070      0.05806100      0.06439000       1
H               3.19198000     50.47240000    -16.16510000      0.01334270      0.03631230     -0.01101970       1
O             -34.63850000     39.37410000      2.41464000     -0.04299160     -0.00054588      0.03496930       8
H             -34.41140000     37.70890000      1.70524000      0.00914445     -0.00652930     -0.01074600       1
H             -36.41480000     39.22330000      3.10647000      0.03664210      0.01844310     -0.01530190       1
O              20.80940000     38.20060000     14.50790000     -0.01133420      0.06269940      0.04444390       8
H              21.31160000     40.07850000     14.01170000     -0.00227167     -0.03470430      0.01595470       1
H              21.04470000     37.16030000     13.16850000      0.00806138     -0.03528570     -0.05492230       1
O             -17.30080000    -12.65960000      7.12722000      0.03254220      0.02665080      0.01274180       8
H             -17.18890000    -13.73470000      5.75702000      0.02079780     -0.02984420     -0.04653610       1
H             -18.93130000    -13.09600000      7.58527000     -0.04750880     -0.00280510      0.03377340       1
O             -46.85580000      3.99731000     18.87330000      0.03477840      0.00830612      0.03849440       8
H             -46.32730000      2.66510000     20.10160000     -0.01488170      0.01272290     -0.01931070       1
H             -45.62690000      5.48968000     19.18420000     -0.02743270     -0.02526010     -0.01670260       1
O             -21.69400000    -13.34710000     34.23930000     -0.08397680     -0.03805010      0.03639350       8
H             -21.90680000    -15.04690000     35.23240000      0.03090560      0.03249500     -0.02629630       1
H             -23.63400000    -13.14770000     34.31460000      0.05026520      0.01465090     -0.01549940       1
O              16.22410000     15.63440000     32.23940000     -0.00005835      0.00325669     -0.02295300       8
H              17.43510000     14.58120000     33.14160000     -0.00033956     -0.00300490     -0.01874510       1
H              16.28710000     15.46300000     30.31540000     -0.00006766     -0.00402355      0.04285340       1
O             -21.38750000     -0.83846500     35.59240000     -0.05523450      0.09610210     -0.00929854       8
H             -20.60280000     -2.28588000     35.67990000      0.11030200     -0.10149500      0.01891640       1
H             -22.76300000     -1.86852000     35.07040000     -0.05357430      0.00734001     -0.01447350       1
O              41.52960000      7.72272000     35.71950000     -0.03159790     -0.03743550     -0.05170820       8
H              40.92520000      6.20233000     34.54520000      0.01487250      0.05003930      0.01701510       1
H              42.08950000      6.71380000     37.07490000      0.01182400     -0.00173759      0.03237760       1
O              -9.57759000    -35.03860000     -8.34672000     -0.07995970     -0.01709240     -0.06124540       8
H              -7.94354000    -35.13500000     -8.98317000      0.04756920     -0.00327594     -0.00724790       1
H             -10.58340000    -35.83370000    -10.00030000      0.03200160      0.02143760      0.06355740       1
O              52.80000000    -18.00340000    -13.37450000     -0.04813540     -0.02912100     -0.00835031       8
H              54.31540000    -17.63570000    -12.55700000      0.02641250     -0.00192353      0.02733520       1
H              51.73540000    -19.28820000    -12.42340000      0.02128670      0.03395560     -0.00409415       1
O              16.06960000      0.59257000     11.82260000     -0.04029430      0.01989110      0.02145910       8
H              14.35940000      1.14840000     12.41990000      0.02258430      0.00901189     -0.00024916       1
H              15.68260000     -1.14589000     11.88860000      0.01413720     -0.02892140     -0.01005250       1
O             -33.90870000     -4.07188000     45.58790000     -0.10190900      0.06200290     -0.09935280       8
H             -34.48180000     -4.59712000     43.70830000      0.03229930      0.01778960      0.05391380       1
H             -32.88850000     -5.21992000     46.25190000      0.06365200     -0.07250550      0.04106360       1
O               7.92562000    -11.28630000     -9.45817000     -0.12438100     -0.01769870      0.08435420       8
H               7.44414000    -10.89540000     -7.48944000      0.02600600     -0.00997372     -0.05268350       1
H               9.45142000    -10.69890000     -9.78948000      0.09418190      0.03755080     -0.01556370       1
O              22.30890000     18.24520000     14.00600000     -0.02702090     -0.04839530      0.09826280       8
H              21.28820000     19.45290000     15.00270000      0.00876562      0.01358650     -0.02058500       1
H              22.82780000     18.61520000     12.45650000      0.02589640      0.03885220     -0.08663560       1
O               9.58787000     21.19790000     -9.38404000     -0.02391210     -0.00803108      0.01405800       8
H               9.05269000     21.50550000     -7.65403000      0.00474750      0.00006440     -0.00384719       1
H               8.04807000     20.34910000    -10.04160000      0.01727310      0.01011690     -0.00848493       1
O              23.15550000     52.06740000     30.21370000     -0.02902540      0.08278940     -0.00594814       8
H              24.87460000     52.48670000     30.89870000     -0.01794600     -0.00476417     -0.00581949       1
H              22.19770000     53.88070000     29.98840000      0.04178480     -0.07247320      0.00734439       1
O              -6.45439000      6.94462000      3.10755000      0.02352180      0.05025100     -0.02673350       8
H              -7.12008000      8.67271000      2.38334000     -0.00012316     -0.06721530      0.02839210       1
H              -7.47433000      5.94592000      4.19665000     -0.01988600      0.01132760     -0.00056841       1
O              14.63550000    -29.58480000     15.97870000      0.00485429     -0.08582740      0.01284820       8
H              12.91360000    -29.49670000     15.54240000     -0.03456370      0.02685270     -0.01006190       1
H              14.53380000    -31.63160000     16.12480000      0.02410630      0.04879320     -0.00119166       1
O               1.90694000     17.08600000     42.95760000      0.01410520     -0.03429000      0.01836840       8
H               2.03460000     15.24290000     43.50340000      0.00358543      0.03701740      0.00167592       1
H               1.92311000     16.88450000     41.17320000     -0.00308449      0.00523620     -0.02141140       1
O              42.28390000     42.28060000     -0.20593400     -0.10903600     -0.05100120     -0.00516487       8
H              43.77770000     42.87900000      0.21553300      0.09353980      0.04730470      0.03517260       1
H              41.16530000     42.23060000      1.31752000      0.02006470     -0.00389829     -0.02961930       1
O              21.60510000     10.73010000    -30.01800000     -0.00225250      0.04657080     -0.02239540       8
H              21.41600000      8.97922000    -30.27860000     -0.00208667     -0.02958750     -0.00651644       1
H              21.22080000     11.64930000    -31.66250000      0.00714982     -0.01441890      0.03148730       1
O             -14.60100000     42.18550000      3.24680000     -0.03194200      0.02486200      0.06902220       8
H             -16.30840000     41.48480000      3.67104000      0.02054910      0.00558426     -0.02288880       1
H             -14.44980000     43.38790000      4.87021000      0.01499930     -0.02981090     -0.05544720       1
O              12.03130000    -28.00890000     30.95840000     -0.03566730      0.06562100     -0.02806100       8
H              12.61580000    -28.31240000     32.69260000      0.00000821      0.02073880     -0.00895698       1
H              11.29770000    -26.12640000     30.50050000      0.03599900     -0.08099080      0.03605980       1
O               2.85902000     36.15370000      1.66993000     -0.04399910     -0.00663610      0.00259893       8
H               1.02871000     36.26500000      2.45534000      0.04893080     -0.00156313     -0.03442920       1
H               2.92273000     36.06000000     -0.20839200     -0.01802950      0.00450640      0.02441680       1
O             -12.13920000    -13.68790000     12.37560000     -0.00357717      0.02790570     -0.06313050       8
H             -10.66680000    -14.45360000     11.59000000      0.00749328     -0.01484700      0.01751040       1
H             -12.67410000    -12.70160000     10.76080000      0.00587855     -0.01648000      0.05972840       1
O              -6.22464000      4.56586000     15.46800000     -0.03303240      0.01222610     -0.03545600       8
H              -5.31739000      4.47443000     16.97140000      0.04078540      0.00594853      0.03107920       1
H              -5.78477000      3.11343000     14.49700000      0.00118951     -0.01445300     -0.00609666       1
O              26.90400000    -12.63360000     -4.06602000      0.13734500     -0.01205490     -0.00316851       8
H              25.31990000    -12.95530000     -4.32877000     -0.14628400     -0.01941450     -0.01454330       1
H              27.59500000    -14.07710000     -5.10714000     -0.00402615      0.03233760      0.01651270       1
O              21.47490000      5.51833000     43.66120000     -0.00056668     -0.02370860      0.05159150       8
H              20.79450000      4.98039000     45.52250000      0.01712480      0.01875890     -0.04843470       1
H              23.21450000      4.85135000     43.53590000     -0.01511580      0.00771359      0.00534304       1
O              14.78370000     25.38820000     47.44100000      0.07103170      0.03274190      0.03874660       8
H              16.68720000     25.81010000     48.22300000     -0.07862300     -0.01740890     -0.03824880       1
H              14.84800000     23.76880000     46.62320000      0.01538340     -0.01417850     -0.00210249       1
O             -16.63910000      9.82007000     22.12050000     -0.01863960     -0.01596300      0.04162920       8
H             -14.88710000      9.75195000     21.66120000      0.00909902     -0.00590544      0.00251710       1
H             -16.87230000      9.08013000     23.91650000      0.01004780      0.02083750     -0.04099520       1
