192
TotEnergy=-1103.23403000 cutoff=-1.00000000 nneightol=1.20000000 pbc="T T T" Lattice="24.30641000       0.00000000       0.00000000      -0.00000100      24.30641000       0.00000000      -0.00000100      -0.00000100      24.30641000" Properties=species:S:1:pos:R:3:force:R:3:Z:I:1
O              17.93990000     12.24190000      8.36714000     -0.05286320      0.03108280     -0.06518530       8
H              16.53080000     12.12930000      6.73433000      0.05785580      0.00548581      0.07145640       1
H              18.49270000     14.06080000      8.36730000     -0.00691991     -0.03017200     -0.00688785       1
O              16.22920000     18.70450000     15.63380000     -0.00031880      0.00200356      0.00780621       8
H              17.47220000     19.94790000     16.22200000     -0.00200631     -0.00128976      0.00495615       1
H              14.59840000     19.40270000     16.17500000      0.01103260     -0.00196620     -0.00477818       1
O              16.36410000     13.43170000     13.49010000      0.00540062      0.02051490      0.00749440       8
H              16.39640000     13.24950000     11.61380000     -0.00032159      0.01585290      0.03180780       1
H              16.23230000     15.19260000     14.28170000     -0.00034533     -0.04112680     -0.04315280       1
O               9.37712000     16.13580000     10.50720000     -0.00263513      0.04246570      0.04634910       8
H               9.38229000     17.46230000     12.00890000     -0.00615242     -0.03512670     -0.05967120       1
H               9.81551000     17.03290000      8.93731000      0.00093004     -0.00723832      0.01958070       1
O               2.80868000     10.11180000      6.65432000      0.04459350      0.04489970      0.02793630       8
H               1.08692000      9.67831000      6.57598000     -0.02665880      0.00145133      0.00697733       1
H               3.31886000     11.48710000      8.06003000     -0.01359130     -0.05013270     -0.03494270       1
O               6.88368000     22.79060000     20.41040000     -0.03419170     -0.00360472      0.00879253       8
H               6.41736000     23.47850000     18.77250000      0.00295320      0.00080591      0.00353593       1
H               5.17169000     22.44210000     21.13610000      0.02768240      0.00458344     -0.01171600       1
O               7.44013000     19.71280000     14.57350000     -0.06824530      0.00547502     -0.01162040       8
H               5.48137000     19.84700000     14.24070000      0.06046910      0.00025569      0.00142059       1
H               7.29893000     18.51150000     15.92110000      0.01046270     -0.00301412      0.01331440       1
O               9.31146000      0.12429300      0.58508200     -0.03196750     -0.01471300     -0.01122470       8
H              11.09040000      0.19731200      0.27329600      0.02018850      0.00948453     -0.00667415       1
H               8.41485000     -0.03591900     23.23940000      0.01547880      0.00254151      0.01751980       1
O               2.79065000      5.38823000     11.40400000      0.01053940     -0.02445740      0.05677480       8
H               3.09333000      4.75155000     13.40940000     -0.02278750      0.04497510     -0.09050960       1
H               2.03457000      7.03765000     10.97790000      0.01320550     -0.01622130      0.03579210       1
O               1.18227000     22.80650000     22.36590000      0.02362640      0.04146640      0.04670530       8
H               0.97283500      0.39015300     22.93200000     -0.01030380     -0.04781960     -0.01929910       1
H               1.92754000     22.01440000     23.96880000     -0.00062043      0.00841042     -0.03012750       1
O              20.71020000     17.38040000      7.60878000     -0.05751650      0.03236690      0.08811620       8
H              19.20400000     18.42020000      8.71446000      0.06257760     -0.02580030     -0.02748750       1
H              19.90530000     17.62910000      6.06946000      0.00064550      0.00085764     -0.05100270       1
O               4.67625000     12.60880000     10.59570000     -0.07687930     -0.01979180      0.00534958       8
H               6.28831000     13.37740000     10.69840000      0.00280416      0.03650280     -0.00269704       1
H               2.85966000     13.37150000     10.96980000      0.06342680      0.00030659     -0.00023706       1
O              21.97460000     19.29780000     22.14540000      0.05236680      0.05837020      0.01663120       8
H              22.59370000     17.79350000     21.41510000      0.00424741     -0.02049130     -0.01064790       1
H              23.91640000     20.59490000     22.25790000     -0.08377070     -0.02726200     -0.00778863       1
O               5.70973000      5.64108000     18.35050000      0.02237540      0.00497091     -0.02261000       8
H               6.11041000      6.43120000     16.66860000     -0.00668371     -0.00583077      0.03099970       1
H               7.43750000      5.34539000     19.08370000     -0.01262340      0.00557499     -0.00086372       1
O               0.71213200      2.18223000      7.92848000     -0.08981110      0.05940850      0.00210067       8
H               2.11496000      1.22411000      7.87145000      0.07341240     -0.03873030      0.00358144       1
H               0.94798100      3.73239000      8.92336000      0.01895000     -0.02108210     -0.00109041       1
O              10.28150000      5.31090000     20.84740000     -0.01226290      0.00846168      0.01059040       8
H              11.54160000      5.83219000     19.64180000      0.00243611      0.00774198     -0.00152027       1
H               9.97074000      6.73346000     22.00320000      0.00960791     -0.01195780     -0.01138030       1
O               0.44264300     22.77860000     15.58520000      0.03659900      0.04658990      0.01751270       8
H               1.71340000     -0.02620100     15.68460000     -0.02115500     -0.04550830      0.00818675       1
H              24.01360000     23.22290000     14.03030000     -0.02321020      0.00760596     -0.02353090       1
O              13.80480000      0.43562200      9.28966000     -0.01836380     -0.02083950     -0.08006240       8
H              13.26440000     -0.63287100      7.68493000      0.02214320      0.03009770      0.05504250       1
H              14.17250000      2.10663000      8.39898000      0.00510195     -0.01997930      0.02978190       1
O              19.31900000     17.82960000      2.59914000     -0.00743632     -0.00030029     -0.00605151       8
H              17.96970000     16.62280000      2.44471000     -0.00233442     -0.00804648     -0.00493403       1
H              19.70390000     18.10590000      0.81614500      0.01444360      0.00764266      0.00636832       1
O               3.74275000     17.33640000     19.93410000      0.07371600     -0.00555457     -0.00075161       8
H               6.09971000     17.08250000     20.06860000     -0.07613700     -0.00778487     -0.02680270       1
H               3.42463000     18.57390000     21.21090000     -0.00739356     -0.00074061      0.00345934       1
O              12.15680000     22.45080000     16.77600000     -0.07151470     -0.02056920     -0.01966680       8
H              10.52210000     22.24990000     15.76150000      0.04419740      0.01202320     -0.00873808       1
H              11.08820000     21.81850000     18.12220000      0.02432190      0.00149034      0.02881360       1
O               7.48610000      9.46780000     13.86350000     -0.05320090      0.04216940     -0.02383580       8
H               8.84619000     10.47610000     14.53830000      0.00206354      0.00104224      0.00498962       1
H               6.09038000     10.80440000     13.17060000      0.04936320     -0.05273270      0.02368730       1
O               6.57063000      2.27179000      4.24388000     -0.00654444     -0.03470050     -0.00238274       8
H               7.89238000      1.82608000      3.02100000     -0.00842619      0.00875638      0.00255707       1
H               6.38172000      4.01361000      4.51554000      0.00797622      0.02888830     -0.00104923       1
O               8.81810000      2.20944000     11.12380000     -0.00019975     -0.02706540      0.00576136       8
H              10.29950000      1.19321000     10.65150000     -0.00657499      0.02470570      0.00199561       1
H               9.05344000      3.96256000     10.75950000      0.00901839     -0.00095780     -0.00180690       1
O              16.09720000     14.36820000      0.23527200      0.02476390     -0.06399440      0.00294491       8
H              16.21590000     14.45660000     22.72720000      0.00338109      0.01089710     -0.01001250       1
H              16.96820000     12.56480000      0.36894200     -0.03458680      0.05074860      0.00718637       1
O              18.04740000     21.02630000     10.58000000     -0.08211090      0.03543180      0.03960010       8
H              16.03040000     22.44630000     10.57200000      0.07880460     -0.04431310     -0.01196970       1
H              17.86070000     20.29420000     12.33660000      0.00016744      0.01285080     -0.03665490       1
O              19.10090000      6.00675000     12.31800000      0.04848170      0.03807280     -0.00906455       8
H              19.51930000      4.12549000     12.51960000      0.00959542      0.04728330     -0.00718919       1
H              20.66560000      7.44638000     12.07440000     -0.05120540     -0.08215950      0.01677360       1
O               8.49592000     16.14350000     19.08240000      0.02648260      0.04274920      0.07893900       8
H               9.32863000     15.23230000     17.77630000      0.01466960     -0.01384670     -0.00259324       1
H               9.80762000     16.81180000     20.73580000     -0.02922220     -0.01874820     -0.06380660       1
O              15.46150000      2.23855000     14.49030000     -0.04642670     -0.04491670      0.02826450       8
H              15.10680000      1.72952000     16.26490000      0.02490410      0.02288180     -0.00975333       1
H              14.19610000      0.95333100     13.96080000      0.02035140      0.02508910     -0.01638260       1
O              17.34120000      8.95116000      0.24843000      0.00443308      0.01398480     -0.00216243       8
H              19.17660000      9.08940000      0.07719200     -0.01927920     -0.01396340      0.00633911       1
H              16.80010000      7.37954000      1.02118000      0.01707610      0.00230756     -0.00208115       1
O              19.72150000     21.96000000     18.19510000      0.01147360      0.03629220     -0.04795000       8
H              21.39060000     22.72260000     17.58750000     -0.03250550     -0.03084210      0.02201700       1
H              19.87270000     20.74670000     19.50300000      0.02806660     -0.00922173      0.02232020       1
O               6.96588000      7.86803000      5.18131000      0.03976370      0.01037730     -0.05859260       8
H               7.27119000      8.91169000      3.61276000      0.01097080     -0.03059260      0.02999200       1
H               5.45290000      8.67479000      5.57850000     -0.04480150      0.01032430      0.02828350       1
O              13.02330000      7.67833000     16.26260000      0.05124470      0.01080480      0.00800596       8
H              13.66400000      6.05857000     15.57250000     -0.00324948      0.02311560      0.00540410       1
H              14.69840000      8.68860000     16.67880000     -0.04614190     -0.04240240     -0.01237100       1
O              23.15070000     14.80310000     20.07650000      0.03593880     -0.01550700      0.00587303       8
H              22.67070000     13.94980000     21.64580000      0.01278740      0.00275380     -0.00894472       1
H               0.77660600     14.80250000     19.97370000     -0.04308470      0.00277804      0.00615703       1
O              12.62640000     11.94350000      5.25310000      0.00911603     -0.01357870      0.01009850       8
H              12.16310000     10.97750000      6.76563000     -0.00211771      0.00685887     -0.01490460       1
H              12.32130000     10.84070000      3.80296000     -0.00370563      0.00819957      0.01131940       1
O              10.47100000      9.78101000      0.46680900      0.00499236      0.00183927     -0.00316579       8
H              12.12960000     10.22740000     -0.22820700     -0.02357830      0.00499595      0.00320329       1
H               9.23381000     11.19710000      0.39971600      0.02177020     -0.00541266     -0.00375134       1
O              22.51240000     11.30640000      0.61750400      0.09477120     -0.03514820      0.01423980       8
H              23.90020000     12.01820000      1.79326000     -0.04100020      0.00484977     -0.02630790       1
H              23.80600000      9.93407000     -0.02631800     -0.04735560      0.03950860      0.00593233       1
O              10.22500000      8.10954000      9.53066000     -0.00071780     -0.03323290     -0.06124760       8
H               9.12842000      8.43712000     10.88030000     -0.01860190      0.01095730      0.03578040       1
H               9.06408000      7.37587000      8.19447000      0.02323270      0.02450410      0.01872330       1
O              18.12760000      9.05925000     17.22180000      0.03600480     -0.01883920     -0.05521540       8
H              17.99840000     10.90830000     17.18020000      0.00457340     -0.01418390     -0.00471096       1
H              18.98860000      8.34455000     15.48670000     -0.04298890      0.02722080      0.06016940       1
O              14.93430000      5.67669000      8.66975000      0.00407166     -0.01677990     -0.03117910       8
H              13.32020000      6.45064000      9.19502000      0.03066120      0.01095590      0.01382690       1
H              16.70220000      6.02932000      9.19374000     -0.03920730      0.00841704      0.02144930       1
O              11.45260000     13.36090000     15.01050000     -0.02293200      0.00154950     -0.00428811       8
H              12.94450000     12.13630000     14.71360000     -0.04467950      0.04413570     -0.01741960       1
H              10.34430000     14.21340000     13.64460000      0.05895070     -0.04129490      0.01897360       1
O              23.21850000      9.56879000     13.49890000     -0.06068250      0.07592710     -0.01184250       8
H              22.71140000      9.94783000     15.29290000      0.01287310     -0.00876001     -0.03517620       1
H              22.25430000     11.22140000     12.50350000      0.05161610     -0.06146560      0.04630210       1
O               8.74861000     19.27390000      1.75408000      0.01207520      0.01621030      0.01852720       8
H               9.11132000     21.11670000      1.91052000     -0.01414630     -0.00977713     -0.00591662       1
H               9.56129000     18.54420000      3.24183000     -0.00686693      0.00210640      0.00226025       1
O               7.32438000     13.99410000      1.20212000      0.04813290      0.02885560     -0.00099392       8
H               8.33694000     15.64690000      1.14859000     -0.04010640     -0.04708690     -0.00271211       1
H               5.57388000     14.28020000      0.90609400     -0.00832801      0.01063260      0.00112687       1
O              14.33810000      0.57342500      0.36501000      0.02397690      0.04875640      0.05488950       8
H              14.91510000      2.21038000      1.62705000     -0.01366040     -0.06107860     -0.05344120       1
H              15.20840000      0.67363500     23.05780000      0.00231519      0.01221270     -0.00026835       1
O              17.70990000     14.35560000     19.40180000      0.03713890      0.06097270     -0.09818020       8
H              17.33430000     15.87760000     17.68080000      0.00682760     -0.05807830      0.07889260       1
H              19.63140000     14.22210000     19.06450000     -0.04695040      0.00476206      0.01679430       1
O               2.21826000     19.14020000      6.16854000     -0.06185370      0.01190400      0.06428930       8
H               0.48219000     19.17400000      7.20713000      0.05516990     -0.00602025     -0.04653110       1
H               3.19859000     20.25260000      7.29983000      0.00272695     -0.00638539     -0.01821730       1
O               5.12902000     23.49810000      8.22161000      0.01639330     -0.00219925      0.04503550       8
H               5.82268000      0.26037600      6.91520000      0.00648200      0.00499174     -0.00833921       1
H               6.16046000     23.91400000      9.78677000     -0.02407880     -0.00313879     -0.04071010       1
O              21.96860000      9.71488000      6.16931000      0.00767813     -0.02265430      0.03323720       8
H              21.88210000     10.94080000      4.92713000     -0.00658113      0.02797400     -0.03149980       1
H              21.26050000     10.51380000      7.65724000     -0.00895172     -0.00493810     -0.00702635       1
O               2.35366000     14.42730000      3.46027000     -0.00293067      0.02144420      0.07593720       8
H               2.31756000     15.53810000      5.20629000      0.00088383     -0.03187380     -0.07467230       1
H               2.85733000     12.80660000      4.20499000     -0.00055594      0.00643082     -0.00552183       1
O              16.64960000      4.49651000      3.65238000     -0.03487040      0.06955080      0.04538710       8
H              15.86230000      6.11033000      4.91795000      0.03386240     -0.08287540     -0.04484750       1
H              18.32250000      4.12259000      4.35122000     -0.00634602      0.00487224     -0.00641418       1
O              22.07090000      4.89412000      4.28267000      0.00220199      0.02768190      0.02316360       8
H              23.12300000      3.95590000      5.58643000     -0.01886470      0.02098910     -0.02376600       1
H              21.75800000      6.75950000      4.80060000      0.01481970     -0.05321780     -0.00143641       1
O              21.41400000      0.97249300     11.62010000      0.02002570     -0.01699090     -0.01219290       8
H              20.53970000     -0.63695700     11.15450000      0.01182120      0.02656560     -0.00124685       1
H              22.95070000      1.27012000     10.51080000     -0.03744690     -0.01250040      0.01072850       1
O              11.72880000     18.54160000     22.17420000      0.06720670     -0.01749920      0.09954980       8
H              13.16230000     17.59840000     23.44920000     -0.05490160      0.02564130     -0.06806690       1
H              11.23740000     19.64960000     23.69710000     -0.01103190     -0.02294850     -0.04670120       1
O              23.73810000     14.52560000     11.43340000      0.02398730      0.07053540      0.02115460       8
H              22.73230000     15.40990000     10.14850000      0.00854214     -0.00960076      0.00480857       1
H               0.23198400     16.18260000     12.52600000     -0.02287850     -0.06639870     -0.02356720       1
O              21.06390000      5.66399000     20.63660000      0.00085406      0.01076570     -0.00235412       8
H              19.99790000      6.86845000     19.56350000      0.03935110     -0.01289820      0.02534380       1
H              22.81250000      6.10773000     21.18670000     -0.04079890      0.00526820     -0.02511790       1
O              11.84180000     17.68120000      6.12092000      0.05571480      0.01165540     -0.05836550       8
H              12.71560000     16.15220000      5.56133000     -0.02321860     -0.01546920      0.01751930       1
H              13.12810000     18.70220000      5.05790000     -0.03067940      0.00879084      0.03451510       1
O              17.05760000      1.82144000     19.87620000      0.01017240      0.00548845      0.02260900       8
H              18.21010000      0.50285400     19.35470000     -0.00509242     -0.01080590     -0.00770967       1
H              18.24300000      2.86351000     20.83040000     -0.01027950      0.00401990     -0.00889056       1
O               3.40512000     19.55560000      0.85380600      0.07594210     -0.02222350     -0.01367840       8
H               5.38119000     18.87140000      0.95999800     -0.08020030      0.03431120      0.01122170       1
H               2.54310000     19.37300000      2.43194000      0.00828741     -0.01023180      0.01365590       1
O               1.05591000      3.35029000      0.49439700      0.02411940     -0.01523910     -0.03974290       8
H              -0.30165300      4.47821000      1.12272000      0.02519010     -0.03046410      0.03140540       1
H               2.59664000      2.49443000      1.21844000     -0.04358450      0.03993010      0.01467090       1
O               4.98617000      1.42157000     15.95710000     -0.07726160      0.01437220      0.07295970       8
H               6.10694000      0.96254500     14.73710000      0.05161430      0.00694747     -0.03318680       1
H               5.05567000      2.83863000     17.37140000      0.02410110     -0.01490430     -0.04741440       1
O               3.21706000      8.54522000     23.28990000     -0.01049630     -0.05532720      0.00042173       8
H               4.10883000      7.51364000     22.01730000     -0.00273275      0.02449920      0.00142041       1
H               2.38775000      7.02151000     -0.23991000      0.01402030      0.02725160     -0.00267297       1
O               1.76967000     18.00300000     14.60610000      0.01333720     -0.00649792      0.03815200       8
H               0.54531300     19.33900000     14.65840000      0.00423367      0.01117940      0.00343682       1
H               2.33638000     17.97620000     16.48240000     -0.01154540     -0.00907457     -0.03721370       1
O              15.68570000     21.38260000      4.18837000     -0.00067380      0.02460070     -0.07396110       8
H              17.17420000     20.33310000      3.97326000      0.00132900      0.00084724      0.00207011       1
H              15.69820000     22.32330000      2.31421000     -0.01127570     -0.02445500      0.07155730       1
