192
Lattice="25.03481 0.0 0.0 0.0 25.03481 0.0 0.0 0.0 25.03481" Properties=species:S:1:pos:R:3:force:R:3 TotEnergy=-1103.74157 cutoff=-1.0 nneightol=1.2 pbc="T T T"
O        3.60575000       2.73876000       9.30248000      -0.00271273      -0.00051109      -0.00275086
H        2.08017000       3.49978000       8.68032000       0.00097597       0.00115245       0.00445645
H        3.06349000       1.53457000      10.55720000       0.00516410      -0.00047343      -0.00197917
O       15.40500000       5.56475000       9.86730000       0.00196706      -0.00135049      -0.00162250
H       14.39510000       6.07018000       8.45144000      -0.00146763      -0.00399929      -0.00033668
H       16.56000000       4.36174000       9.11858000       0.00266281       0.00373606      -0.00097012
O       16.64780000      21.92370000       4.73004000      -0.00254890      -0.00100389       0.00250157
H       15.52300000      22.33920000       3.36107000       0.00070179       0.00040007      -0.00068160
H       16.92180000      20.12070000       4.59000000      -0.00062461      -0.00555453      -0.00313648
O        6.57409000       6.05081000      15.67820000       0.00367694      -0.00057254      -0.00013742
H        7.67601000       6.98681000      16.76390000      -0.00096866       0.00113878       0.00055914
H        7.57513000       5.77322000      14.14060000      -0.00280383      -0.00151634       0.00302930
O        6.84522000      17.06540000      16.58720000       0.00629881      -0.00963987      -0.00476192
H        6.31773000      15.52240000      17.39820000      -0.00040487      -0.00434423      -0.00091185
H        5.83091000      18.26260000      17.46070000      -0.00289820       0.01129550       0.00512393
O        4.17019000      23.16700000      12.76720000      -0.00380498       0.00192751      -0.00172698
H        2.63132000      22.41490000      12.14270000      -0.00480469      -0.00216564       0.00084315
H        4.07581000      23.01650000      14.56730000      -0.00044669       0.00092329       0.00164815
O       17.00240000      12.28500000       8.45470000      -0.00122250       0.00331734       0.00133283
H       17.19960000      14.06580000       8.12919000      -0.00197503      -0.00149790      -0.00732404
H       15.51690000      12.20800000       9.47787000       0.00131676       0.00478266      -0.00163685
O        8.37161000      16.61610000       7.94722000      -0.00151652      -0.00123869      -0.00079606
H        7.12454000      15.49690000       8.66264000      -0.00001403       0.00067645      -0.00136976
H        9.10444000      15.71410000       6.53179000      -0.00068584       0.00037305       0.00111358
O       14.84630000       0.80193700       1.26845000       0.00254132       0.00156322      -0.00000991
H       16.60370000       0.64186500       1.66657000      -0.00073013       0.00318254       0.00027499
H       14.80540000       1.68683000      24.71693300      -0.00347707      -0.00547870       0.00612346
O        0.82758000      11.88280000      14.42000000      -0.00141665       0.00292978       0.00158580
H       24.22196100      12.68450000      14.17300000       0.00284210       0.00040411      -0.00112093
H        2.04091000      13.06360000      13.77200000       0.00125952      -0.00081498       0.00226642
O       19.49010000      11.23510000       1.50641000      -0.00235064      -0.00346252       0.00144495
H       19.18770000      11.34550000      24.74896600      -0.00131807      -0.00079357       0.00079032
H       18.29450000      12.41580000       2.19947000       0.00211057      -0.00225295       0.00053012
O        2.88699000       4.99173000      19.48120000       0.00352061      -0.00555306       0.00202043
H        4.10212000       4.84272000      20.83330000      -0.00507741      -0.00013844       0.00249633
H        3.89747000       5.05463000      17.96050000       0.00036910       0.00120576      -0.00182320
O       17.35300000      16.56910000       4.78061000       0.00537957      -0.00166324      -0.00270756
H       19.11880000      16.08340000       4.76545000      -0.00351825       0.00269904      -0.00470717
H       16.70410000      16.14950000       3.10186000      -0.00352934       0.00004634       0.00578114
O        5.95202000      21.75480000      19.53510000       0.00509343      -0.00388234       0.00071309
H        7.39013000      21.65630000      18.42600000      -0.00090323       0.00311992       0.00290462
H        6.57944000      20.97850000      21.07700000      -0.00573894       0.00302625      -0.00290580
O       14.46870000      15.08340000       0.16019000       0.00663351       0.00484469       0.00215339
H       15.38970000      13.98880000      24.07910000      -0.00327496      -0.00170420       0.00112840
H       14.76400000      16.81740000      24.43060000       0.00495764       0.00431361      -0.00333056
O        4.80130000       1.94197000       3.88052000       0.00312244       0.00026842       0.00009568
H        4.81820000       1.87814000       5.70816000      -0.00375898       0.00138795      -0.00162474
H        6.42797000       1.15375000       3.43527000      -0.00458999      -0.00091413       0.00249627
O        0.76483900      23.99990000      18.42870000      -0.00206138       0.00321920       0.00006945
H        0.88383800       0.73489000      18.82320000      -0.00104733       0.00264045      -0.00125403
H        2.35664000      23.36600000      19.00970000       0.00972673      -0.00443645       0.00089553
O       12.67100000      15.77870000      16.96160000      -0.00236759      -0.00893810       0.00123677
H       12.90340000      14.65510000      15.55620000      -0.00126408       0.00516227      -0.00281159
H       10.86810000      16.06550000      17.01220000       0.00342810       0.00542093       0.00155977
O        6.87559000      22.31290000       8.42360000       0.00057227       0.00111083      -0.00387691
H        6.28318000      22.47890000      10.14180000      -0.00251408       0.00443558       0.00258112
H        6.33015000      20.65050000       7.94691000       0.00796976      -0.00329518      -0.00200207
O        4.19876000      13.30210000      19.26000000      -0.00122498      -0.00414650       0.00227199
H        2.39497000      13.40470000      19.07390000       0.00345553      -0.00325603      -0.00070256
H        4.43070000      12.19400000      20.67570000       0.00212898       0.00148818      -0.00017407
O       20.87230000       9.84590000      10.50750000       0.00470688      -0.00039457       0.00021020
H       20.21500000       8.38029000      11.33420000       0.00161818      -0.00150059       0.00235096
H       19.48200000      10.49250000       9.49026000      -0.00088442       0.00103366      -0.00020511
O       24.36330000       1.85702000       1.02207000       0.00212195      -0.00136530       0.00097964
H        1.04769000       1.75342000       0.43622300      -0.00076972       0.00331312      -0.00113178
H       24.48080000       3.06162000       2.38613000      -0.00333231       0.00048173      -0.00300025
O       12.06840000      10.28490000      10.96760000       0.00241221       0.00200321       0.00090133
H       12.31570000      12.09730000      10.86400000      -0.00193551      -0.00138834       0.00195985
H       13.57070000       9.43317000      10.41260000      -0.00109698       0.00327699       0.00174179
O       21.58800000      23.17450000       6.63804000      -0.00310484       0.00075580       0.00066851
H       22.40990000      22.75360000       5.06006000       0.00173839      -0.00204568       0.00365806
H       19.88580000      22.52640000       6.48345000      -0.00063181       0.00080278      -0.00307541
O        5.32166000       5.06129000      24.87702200      -0.00221266       0.00467927      -0.00446209
H        4.60618000       6.69971000       0.22579900       0.00685051       0.00065026      -0.00144871
H        5.32376000       4.17618000       1.44745000      -0.00512445      -0.00197360       0.00146872
O       16.49800000      10.59650000      22.19780000      -0.00380766       0.00385743      -0.00132994
H       15.12380000      11.03040000      21.09150000       0.00476993       0.00244103       0.00094925
H       16.36090000       8.77598000      22.31690000      -0.00288018      -0.00036147       0.00057580
O       16.01570000      19.49020000      22.98430000      -0.00270340      -0.00914916       0.00753949
H       17.34170000      18.45870000      22.28740000      -0.00321445       0.00517427      -0.00131590
H       17.32590000      24.94140000      20.16110000       0.00843609       0.00096271       0.00057680
O       12.72200000      15.74450000      11.21740000       0.00085820       0.00045470      -0.00148999
H       13.74110000      17.25300000      11.16600000      -0.00017629      -0.00278621       0.00052462
H       11.06420000      16.30760000      10.67660000       0.00166879      -0.00104127      -0.00507957
O       20.90000000       4.22963000      14.73010000       0.00272392       0.00341353       0.00156046
H       21.95340000       3.65691000      13.36500000      -0.00112633       0.00164001       0.00216763
H       21.92580000       5.47798000      15.59300000       0.00176322       0.00005897       0.00073136
O        4.71345000      19.02830000      24.50360000       0.00452005      -0.00606231       0.00023051
H        4.05814000      17.36290000      24.11250000       0.00093588       0.00500428       0.00408390
H        6.49307000      18.78800000      24.84700000      -0.00479957       0.00110429      -0.00232357
O       15.80400000       5.99528000      15.50300000      -0.00448856      -0.00174166      -0.00106286
H       17.49360000       5.71433000      14.85700000       0.00030603      -0.00506611       0.00159352
H       14.81150000       6.33575000      14.01270000       0.00165799      -0.00138389       0.00157670
O        5.06093000      10.70120000       1.29327000      -0.00014463      -0.00014755      -0.00233718
H        4.70662000      10.70080000       3.06999000       0.00369229      -0.00263015       0.00049958
H        4.05401000      12.06300000       0.60656300      -0.00351310      -0.00163106       0.00172762
O       15.34610000       6.67209000       2.56001000      -0.00124671      -0.00011884       0.00025773
H       16.39270000       5.40644000       3.33004000       0.00145717      -0.00269144       0.00120701
H       16.38720000       8.13906000       2.35449000       0.00312878       0.00350186       0.00033714
O       14.96620000       5.88493000      21.16850000       0.00291612      -0.00393923      -0.00654972
H       14.85410000       6.19924000      19.36750000       0.00032258      -0.00548272       0.00312371
H       15.94790000       4.36346000      21.31720000      -0.00061735       0.00301595       0.00097390
O        0.54517000       9.98350000       7.21190000      -0.00436608      -0.00103734       0.00540930
H       24.39882000       9.74973000       8.60158000       0.00133870      -0.00134836      -0.00371273
H        0.70325300      11.78240000       7.07003000       0.00012864       0.00157775       0.00023361
O       11.49720000      24.91224300      10.61830000      -0.00271432       0.00438223      -0.00334711
H       11.52320000       1.64140000      10.17350000      -0.00097795      -0.00146015       0.00004334
H       10.10000000      24.18563100       9.67703000       0.00631435      -0.00045007       0.00429812
O       18.06830000      23.85100000      18.87150000      -0.00388948       0.00170868      -0.00554562
H       16.68980000      23.05020000      17.94130000       0.00176028      -0.00337183      -0.00848353
H       19.25810000      24.71910000      17.73720000      -0.01094280      -0.00575041       0.00651084
O        9.17402000      24.56400000       3.71853000      -0.00127532      -0.00842008       0.00151064
H        8.60993000      23.79180000       5.27684000       0.00244233      -0.00079846      -0.00110258
H        9.44209000      23.18570000       2.56820000       0.00279797       0.00129752      -0.00233883
O       19.11100000       3.17961000       6.05605000      -0.00111564      -0.00129608       0.00113677
H       19.63310000       1.43079000       6.11371000       0.00128043       0.00243810       0.00076270
H       20.65140000       4.13421000       5.81254000      -0.00233277       0.00195312       0.00006609
O        5.32969000      12.17030000       9.93412000       0.00062886       0.00000811      -0.00096605
H        3.97079000      10.98790000      10.15110000      -0.00189922       0.00043895       0.00073531
H        6.28542000      11.40560000       8.59447000       0.00243828      -0.00426743       0.00002994
O       12.09130000      24.34200000      20.43260000       0.00096870       0.00623761       0.00006311
H       11.66600000      24.62690000      18.68270000       0.00450123       0.00270204       0.00147619
H       10.89980000       0.23409000      21.44990000       0.00477162       0.00734632      -0.00085014
O        1.42453000      14.33410000      24.79340000      -0.00105094      -0.00062688      -0.00074125
H        0.19071700      14.60990000       1.06559000       0.00064272       0.00281269      -0.00279281
H        0.40369100      14.29970000      23.26860000       0.00482456      -0.00077492      -0.00259170
O       13.51870000       0.18579900      15.70370000       0.00187343      -0.00121635      -0.00338531
H       14.01050000       1.93038000      15.61590000      -0.00087352       0.00212872      -0.00229972
H       12.69270000      24.83674800      14.11380000       0.00052033       0.00220144      -0.00135655
O       19.18560000       1.62822000      22.75840000       0.01076470      -0.00873741       0.01635770
H       19.40950000      25.02514000      23.54510000      -0.01098690      -0.00384267      -0.00593802
H       20.70050000       2.37077000      23.44910000       0.00192501       0.01297330      -0.00664800
O       24.60711300      21.29830000       2.35333000      -0.00006611      -0.00140721      -0.00274205
H        0.90095100      20.07480000       2.11669000      -0.00098205       0.00232168      -0.00065793
H        0.31430000      22.89410000       1.93966000       0.00046817       0.00553297      -0.00039650
O       21.53860000      14.57040000      13.13080000      -0.00203842       0.00008568       0.00109797
H       20.69000000      13.07550000      12.51540000      -0.00099141      -0.00450794       0.00272121
H       20.33680000      15.41600000      14.21470000       0.00133443      -0.00202876      -0.00005978
O       18.75030000      20.87680000      14.82660000      -0.00270063       0.00056749      -0.00960920
H       18.63410000      19.42830000      15.91690000       0.00305419      -0.00662837       0.00533184
H       17.89550000      20.34730000      13.29640000       0.00159708       0.00746892       0.00261627
O       23.93250000       8.32763000      18.22880000       0.00024040       0.00104695      -0.00033028
H        0.15569000       7.29912000      19.05900000       0.00119109      -0.00401156       0.00109641
H       24.92670000       9.49649000      17.24440000      -0.00472294       0.00043778      -0.00087891
O       22.98810000      19.76370000      21.37550000      -0.00256431       0.00077237       0.00215359
H       22.66500000      20.03980000      23.13810000       0.00112041       0.00251521       0.00205703
H       24.51240000      20.67280000      20.99390000      -0.00359470       0.00213479       0.00055866
O        6.15433000       8.05351000       6.21031000      -0.00230863      -0.00243519      -0.00082201
H        6.88253000       6.63581000       5.32446000       0.00130369       0.00103451       0.00158714
H        4.44315000       7.57839000       6.61653000       0.00364054       0.00092977      -0.00077008
O       23.70040000      14.80000000      20.26100000      -0.00287467      -0.00366285      -0.00161048
H       24.43570000      15.71300000      18.88350000       0.00008203      -0.00064744      -0.00377379
H       22.78210000      16.17420000      21.04440000      -0.00037224       0.00311418       0.00011174
O       10.75910000      13.19440000       3.66073000      -0.00178707      -0.00168198      -0.00061375
H       10.12460000      11.49410000       3.61883000      -0.00037779       0.00437717      -0.00360238
H       11.69080000      13.46750000       2.09439000      -0.00078691       0.00278012       0.00825320
O        1.72136000       6.65976000      12.73290000      -0.00144326      -0.00071725      -0.00136911
H        3.34564000       5.86251000      12.79560000      -0.00145240      -0.00002125      -0.00028719
H        1.93145000       8.21601000      13.64770000      -0.00374496       0.00040964      -0.00129882
O        9.65965000       5.86424000      11.60370000      -0.00384526      -0.00430124      -0.00003474
H       10.12460000       7.61587000      11.79820000       0.00355613       0.00440601      -0.00317557
H        9.04258000       5.79226000       9.89749000      -0.00386281      -0.00174012      -0.00033825
O       10.71130000       3.66094000      23.91010000      -0.00343363       0.00059608      -0.00143189
H        9.05879000       4.37635000      24.17780000      -0.00215379       0.00107127       0.00125655
H       11.85790000       5.06284000      23.81530000      -0.00073324      -0.00044737      -0.00220951
O       15.96850000      21.39690000      10.03750000      -0.00139870       0.00049332       0.00078510
H       15.35790000      21.29100000       8.31875000       0.00548618       0.00048080       0.00005747
H       15.36450000      23.02890000      10.56130000      -0.00364903      -0.00332454       0.00121447
O       22.55230000       6.64826000       3.94520000       0.00227868      -0.00256821       0.00138103
H       23.16360000       8.28401000       4.47023000       0.00306402      -0.00282604       0.00307573
H       21.15590000       7.01371000       2.85871000      -0.00095270       0.00477166      -0.00343175
O       18.99500000      10.40140000      17.13870000       0.00100698      -0.00116661      -0.00069940
H       20.29990000       9.84878000      18.28830000       0.00060470       0.00106858      -0.00367798
H       17.69340000       9.13756000      17.25580000       0.00236972       0.00456985      -0.00134238
O       22.70640000      16.56700000       3.21727000       0.00372754      -0.00369291       0.00409705
H       23.97420000      16.06560000       4.42849000      -0.00948083       0.00064327       0.00600673
H       22.23690000      18.21500000       3.83322000       0.00360405      -0.00153817      -0.00682567
O       10.51460000      20.34890000      22.88330000      -0.02424980      -0.06738400       0.05396200
H       11.17670000      21.61950000      21.97560000       0.02272920       0.06871280      -0.05211350
H       12.15200000      19.65910000      23.34810000      -0.00002073      -0.01217710       0.00206831
O       18.10760000      16.18590000      17.41230000       0.00054745       0.00077623       0.00057876
H       18.76310000      14.59010000      17.97940000      -0.00082160      -0.00302642       0.00043751
H       16.34530000      16.20280000      17.88880000      -0.00208083       0.00127013      -0.00115647
O       23.48940000      16.20580000       8.42513000       0.00346254      -0.00325488       0.00547483
H       23.05900000      15.08610000       9.80330000      -0.00192084       0.00394091      -0.00380011
H       23.65230000      17.78900000       9.32329000       0.00323227       0.00145923      -0.00221381
O       24.02310000      21.18440000      11.07130000      -0.00140669       0.00036303       0.00050175
H       22.96710000      21.85190000       9.71951000       0.00343278       0.00353152       0.00128183
H       23.03570000      21.28220000      12.60050000      -0.00211412      -0.00112178      -0.00404359
O       10.87770000       4.51199000       4.96284000       0.00283546       0.00573964       0.00235628
H       11.99040000       5.94991000       4.99325000      -0.00226512      -0.00178284      -0.00675167
H       11.47450000       3.57312000       3.50964000      -0.00418190      -0.00272003       0.00393559
