192
TotEnergy=-1103.11691000 cutoff=-1.00000000 nneightol=1.20000000 pbc="T T T" Lattice="22.66759000       0.00000000       0.00000000      -0.00000100      22.66759000       0.00000000      -0.00000100      -0.00000100      22.66759000" Properties=species:S:1:pos:R:3:force:R:3:Z:I:1
O               5.91237000      0.85677000      6.16344000      0.03093870     -0.00610131      0.00664418       8
H               4.35744000      1.24044000      7.18123000      0.01919980      0.00982108      0.01171930       1
H               5.88683000     -1.03483000      6.03685000      0.00872548     -0.00945130      0.00438968       1
O              17.27200000     21.19460000      0.45677600      0.00346237     -0.00097434      0.01346790       8
H              16.86300000     20.28030000      2.02664000      0.00910638     -0.00539916      0.00021695       1
H              15.77040000     22.23430000      0.41855500     -0.00110065      0.01408920     -0.00589598       1
O              16.14220000     16.72910000     13.24730000      0.00293516      0.00013164      0.00850734       8
H              16.19950000     14.93200000     13.67060000     -0.00241847     -0.00395985      0.00088258       1
H              17.36210000     17.31750000     14.49320000     -0.00871523      0.00529321     -0.00909517       1
O              21.61900000     22.19270000     18.92310000      0.00904818     -0.01909950     -0.01658450       8
H              19.72280000     24.39390000     17.86060000      0.01113850      0.00523721      0.01522010       1
H              23.32690000     22.44830000     19.51290000     -0.02119320      0.01078530     -0.00257524       1
O               8.16199000      4.91161000     11.15830000     -0.00948790      0.00915078     -0.00136024       8
H               9.73038000      4.02258000     10.90730000      0.00290307      0.00548970      0.00318998       1
H               8.65667000      6.69823000     11.01700000     -0.00345636     -0.01065970      0.00001634       1
O              16.37200000     21.20650000      9.75395000     -0.00487215     -0.00003003      0.00437239       8
H              16.32690000     19.45170000     10.17200000      0.00282159     -0.00976278      0.00463799       1
H              16.41520000     21.94640000     11.41740000      0.00291238     -0.00219942     -0.00135165       1
O              11.80110000      9.36914000     15.83920000      0.01207400      0.01364920     -0.00558990       8
H              10.93690000     14.24910000     18.46170000     -0.01472570      0.00460280     -0.01973460       1
H              11.03980000      8.21215000     16.98860000      0.00024413     -0.00072139      0.00194217       1
O               7.91245000     20.28590000     17.23320000     -0.00113819     -0.00442216     -0.00842364       8
H               7.00339000     21.44530000     18.25780000      0.00259062     -0.00229196      0.00188034       1
H               6.75114000     19.39660000     16.14210000      0.00089728     -0.00187939     -0.00254453       1
O              21.98530000      6.88348000      2.79963000      0.00379326     -0.01084260     -0.00440559       8
H              20.76860000      5.69868000      3.47238000     -0.00472809      0.00954315      0.00676239       1
H              21.95290000      6.51029000      0.99568300      0.00436000      0.00554185      0.00416968       1
O              15.59690000      6.97969000     13.70400000     -0.00712224     -0.00698024      0.01160170       8
H              14.35020000      8.06450000     14.72360000     -0.00562696      0.00278577     -0.00093083       1
H              14.36230000      5.89613000     12.88110000      0.00920682      0.00553955     -0.00406097       1
O              17.04610000     18.90630000      4.76033000      0.00573267      0.00218680     -0.00014095       8
H              15.97830000     17.48480000      4.35122000     -0.00770838     -0.00641675      0.01298590       1
H              16.36180000     19.79650000      6.19060000      0.00579508     -0.00879075     -0.00530476       1
O              21.95560000     17.26910000     18.44270000      0.00535017      0.01900370     -0.00311489       8
H              22.02470000     16.46820000     16.76120000     -0.00104203      0.02065940      0.00573563       1
H              21.90190000     19.87230000     18.40060000     -0.01453540     -0.01922390      0.00708110       1
O               6.88478000     16.70480000     13.24850000     -0.00142636      0.00652297     -0.00573483       8
H               6.33478000     17.53530000     11.72940000     -0.00967332     -0.00286401      0.00107432       1
H               8.75566000     16.85070000     12.96500000     -0.00329178     -0.00194674      0.00775690       1
O               8.92034000      5.73747000      5.59292000     -0.00135079     -0.00330272      0.00064394       8
H               8.52530000      4.10507000      4.91788000      0.00053024      0.00082284     -0.00093748       1
H              10.46000000      5.49032000      6.66103000      0.00748047      0.00521051      0.00421617       1
O               1.01506000      7.74773000      7.50793000      0.00061434      0.00392837     -0.00245020       8
H               0.49193800      7.81131000      5.75281000     -0.00425118     -0.00401968     -0.00381175       1
H              -0.28589400      8.63230000      8.39007000      0.00004518     -0.00804272      0.00567188       1
O              21.99170000     13.54640000     21.64790000      0.00054017      0.00597765     -0.00673828       8
H              22.17570000     15.04330000     20.46000000      0.00178235      0.00496481      0.00091222       1
H              20.24350000     13.24060000     21.27210000      0.00042502     -0.01108000      0.00278725       1
O               5.02497000      9.18470000      4.77941000      0.00192912      0.00702934     -0.00172120       8
H               6.80383000      8.88559000      4.98076000      0.00574136     -0.00160605     -0.00377860       1
H               4.25079000      7.95280000      5.84974000     -0.00227840     -0.00245996      0.00100309       1
O              17.16740000      5.37105000      4.32773000      0.00809453     -0.00464299      0.00350487       8
H              16.58560000      6.72597000      3.23200000      0.00325515      0.00062616     -0.00436086       1
H              17.72430000      4.03261000      3.24679000     -0.01090430     -0.00341723     -0.00004215       1
O               9.40459000     10.77960000     11.70750000      0.01000270      0.00444917     -0.00693819       8
H              10.24930000      9.93647000     13.18150000     -0.00120809      0.00562326     -0.00185663       1
H              11.96120000     11.17020000      9.99669000     -0.00575869     -0.01703280      0.00521703       1
O              20.41520000      6.92736000     11.69140000      0.00648525     -0.00422949     -0.00203601       8
H              18.98670000      7.01915000     12.82990000     -0.00972098     -0.00325357     -0.00092953       1
H              20.12140000      5.34709000     10.62300000      0.00404497      0.00795088      0.01168820       1
O               4.33443000      0.87740400     18.84660000      0.00227160      0.00852342      0.00441191       8
H               3.98708000      0.70670600     16.90960000     -0.00480641      0.00441864      0.00856259       1
H               4.38797000      2.72092000     19.66490000      0.00023210     -0.00047533     -0.00090859       1
O               7.73737000     16.29770000      1.98006000     -0.01302680      0.00010240     -0.00403706       8
H               8.36675000     14.89760000      0.97301900     -0.00425696      0.01448150      0.02167160       1
H               5.53904000     17.99060000      0.33486000      0.00726479      0.01089940      0.00274746       1
O               0.68727800     13.02300000      9.10915000      0.00070928      0.01231440      0.01093490       8
H               0.74051100     14.83510000      8.68424000     -0.01029430      0.01121360     -0.00223709       1
H               2.23714000     12.26340000      8.31542000     -0.00465017      0.00135601      0.02173280       1
O               3.43259000     10.13610000     -0.56900100     -0.00286730      0.00443870      0.00322639       8
H               2.27678000     11.45160000     -1.12081000     -0.00254583      0.00170500      0.00351477       1
H               3.52958000     10.36090000      1.25201000      0.00306313     -0.00523412     -0.00736507       1
O              14.10990000      1.42784000     16.37530000     -0.00217147      0.00264361     -0.00494594       8
H              12.76950000      0.81337600     15.25260000      0.00318211      0.00837675     -0.00143621       1
H              15.68010000      0.94916100     15.55890000     -0.00489790     -0.00736471      0.00177978       1
O              12.73430000      5.54735000      8.87748000      0.00065134      0.00263563      0.00321814       8
H               8.97339000      1.53841000      7.24847000     -0.04182460     -0.00167171     -0.00498400       1
H              14.21150000      4.48822000      8.95650000     -0.00696807      0.00392958     -0.01390160       1
O              17.56770000     12.60890000     15.22050000     -0.00016160     -0.00078358     -0.00152058       8
H              16.96460000     11.08280000     16.03320000      0.00745321      0.00341600     -0.00241343       1
H              18.60680000     12.18410000     13.79510000     -0.00199921     -0.00705611      0.00389276       1
O               4.78061000     11.08540000      9.92601000      0.00862161      0.00048317     -0.00002236       8
H               4.98114000     10.43050000      8.22950000      0.01151000     -0.00182955      0.00752177       1
H               6.51728000     11.05790000     10.81110000      0.00696804     -0.00323792     -0.01493390       1
O               2.70338000     13.43580000     14.23360000      0.00765898     -0.00434891     -0.01433950       8
H               3.36410000     12.62470000     12.73140000      0.00716546     -0.00322761      0.00279423       1
H               4.03281000     14.69710000     14.43650000     -0.01108140      0.00505383      0.00264001       1
O              14.49180000      1.10565000      5.82317000     -0.01008120     -0.00073439      0.00266106       8
H              14.72450000      0.50879200      4.13426000     -0.00421720      0.00053481     -0.00144433       1
H              14.43820000     -0.38235800      6.86451000     -0.00299587      0.00667243      0.00297466       1
O              17.64440000      9.38464000     19.29180000     -0.05563790      0.05129060     -0.05022970       8
H              19.02050000      8.56824000     19.96820000      0.02661420     -0.03573290      0.03181950       1
H              15.90100000      9.28399000     19.84330000      0.01929230     -0.01974580      0.00862810       1
O               9.55619000     14.05650000     17.20890000      0.00920750      0.00927636      0.01571050       8
H               7.88228000     14.94440000     17.48490000      0.00772937      0.00533876     -0.00323983       1
H              10.29720000     13.85080000     15.53870000     -0.00822470     -0.01152010     -0.01275470       1
O               3.37803000      3.28044000      9.59007000      0.00643533      0.00890252     -0.00505652       8
H               5.15319000      3.78629000      9.62411000      0.00786541      0.00431867      0.01317370       1
H               2.55136000      4.89654000      9.30706000     -0.00915373     -0.00440689     -0.00363377       1
O              21.57450000     17.19230000     12.98270000     -0.00329088     -0.00673630     -0.01994920       8
H              23.60120000     12.97090000     11.02480000     -0.00571661      0.01223650     -0.02048940       1
H              19.83880000     16.83960000     12.49540000      0.02087540      0.00754140     -0.00216150       1
O              11.40270000     17.83590000     12.43630000      0.00154433      0.00188326     -0.00049040       8
H              13.08940000     17.31810000     12.99710000      0.00050009      0.00627825     -0.00327712       1
H              11.37840000     17.80250000     10.55720000      0.00243424     -0.00422605     -0.00327935       1
O              10.68840000     17.57510000      7.57576000     -0.00829088     -0.00140223      0.00395469       8
H               8.91739000     17.07460000      7.47162000      0.02162450      0.00689170      0.00232541       1
H              11.14870000     18.36880000      5.79726000     -0.00364028     -0.00557753      0.00514116       1
O              12.93080000      5.58273000     19.04580000      0.00069226     -0.00030525      0.01386550       8
H              12.56030000      4.00163000     19.84940000      0.00565578      0.00286085     -0.00022273       1
H              13.41870000      5.10673000     17.37980000      0.00041499     -0.00415978     -0.00782980       1
O              15.03320000     14.25490000      4.60794000     -0.00651847     -0.01006820     -0.00339525       8
H              13.42610000     14.27090000      3.76162000     -0.00219472      0.00647528     -0.00470752       1
H              14.62170000     13.02860000      5.88614000      0.00534797      0.00425502      0.00560601       1
O               8.70823000     11.81740000     21.68480000     -0.00772089      0.00193797     -0.00326301       8
H               8.87909000     13.17830000     20.56370000     -0.00761324      0.00436933     -0.00329369       1
H               8.15944000     10.44990000     20.66450000     -0.00658909     -0.01027400     -0.00860887       1
O               5.69387000     18.60520000      6.78596000     -0.01810270     -0.00761263     -0.01093860       8
H               5.94250000     17.40520000      5.41397000      0.01005740      0.00620938     -0.00273745       1
H               3.80560000     18.37550000      6.96374000      0.00969223      0.00281659      0.00424276       1
O              10.10070000     22.99830000     13.44390000      0.00089068      0.00374561     -0.00850163       8
H              10.28230000     21.46890000     12.48010000      0.00691336     -0.00604364      0.00265803       1
H               8.98550000     22.48070000     14.78550000     -0.00096365     -0.00242815      0.00108665       1
O               9.98655000      5.12791000      0.64986000     -0.00736798     -0.00182205     -0.00482606       8
H               8.81058000      4.97491000     -0.71960200      0.00229406      0.00265123     -0.00516335       1
H               9.03162000      5.87851000      1.98607000      0.00251852      0.00307561      0.00792944       1
O              21.86220000      7.22980000     20.43600000     -0.00058240      0.00134451      0.00113392       8
H              22.91590000      8.66640000     20.84520000      0.00151479     -0.00357007     -0.00294702       1
H              22.37050000      6.68281000     18.76420000      0.00963786     -0.00011796      0.00735766       1
O               1.85074000      6.32378000     16.06530000      0.01669630     -0.02405120      0.01395950       8
H               0.76088400      7.27821000     15.02860000     -0.00454962      0.00993790     -0.02120870       1
H               3.62947000      6.85555000     15.75880000     -0.01539760      0.01239400     -0.00266394       1
O              21.67880000     19.71080000      2.85393000     -0.01423350     -0.01075530     -0.00687844       8
H              20.33160000     18.59470000      3.53098000      0.01318230      0.01602210     -0.00699261       1
H              20.69170000     20.90470000      1.86909000      0.00736551     -0.00112822      0.00113962       1
O               2.87343000      1.49905000     14.23760000      0.00229440      0.01241210      0.00685465       8
H               3.14701000      2.15861000     12.48260000      0.01098700     -0.01037900      0.00507436       1
H               2.31176000      3.06759000     14.99770000     -0.00824584      0.00735008      0.00407148       1
O              18.74900000      3.42278000     18.22580000     -0.00323830     -0.01020340      0.01572420       8
H              17.37290000      3.05009000     19.41590000      0.00288631      0.00454201     -0.00802186       1
H              18.10900000      4.52912000     16.91030000     -0.00625165     -0.00239186     -0.00809894       1
O              18.28980000     10.87750000      9.80541000      0.00873670      0.00288007      0.00012024       8
H              19.02930000      9.21399000     10.21480000     -0.00668771     -0.00274291      0.00704488       1
H              19.71660000     11.76900000      9.15406000     -0.00690497      0.01113360     -0.00548089       1
O               3.15267000      3.11494000      2.55686000      0.00868553     -0.00510223     -0.01084330       8
H               4.25088000      2.18825000      3.67481000      0.00053279      0.00189117     -0.00187770       1
H               2.59108000      4.57308000      3.44102000     -0.01098490      0.00695053      0.00574670       1
O              16.85680000     18.83620000     19.07710000      0.00295416     -0.00770480     -0.00013144       8
H              17.96660000     17.39110000     19.09090000      0.00735412      0.00097114     -0.00522359       1
H              17.19900000     19.66740000     20.75810000      0.00261101      0.00039959     -0.00821481       1
O               4.92318000     15.99530000     18.96690000     -0.00659583      0.01748420     -0.00026355       8
H               4.32769000     17.74590000     19.31700000      0.01767780     -0.02279290     -0.00733083       1
H               3.52047000     15.22980000     19.82780000      0.00190303     -0.01530290     -0.00767290       1
O              13.43190000      1.37968000      0.32757500      0.00586973     -0.00164919     -0.00711109       8
H              12.29980000      2.56198000      1.11688000     -0.00662250      0.00214124     -0.00575101       1
H              12.63860000      0.23728000     -0.90490500     -0.00629098     -0.00102714      0.00455658       1
O               4.87154000      5.17359000     20.98130000      0.01215750     -0.01161960     -0.00620156       8
H               4.29210000      6.86716000     20.65720000     -0.00474432      0.00599188     -0.00306666       1
H               4.76774000      4.96867000     22.80420000     -0.01093100     -0.00940217     -0.00090032       1
O              11.57200000     18.85540000      3.20511000     -0.00856817      0.00024202      0.00034461       8
H              11.12460000     20.44710000      2.47734000      0.00537698      0.00129742      0.00057757       1
H               9.20315000     17.47080000      2.63123000      0.01320160     -0.01145810     -0.01438910       1
O               0.91462200     18.02890000      6.81135000      0.00420465      0.00210330      0.01643590       8
H               0.57505600     19.24670000      8.14987000     -0.00278036     -0.00175937      0.00745092       1
H               0.55282700     19.06170000      5.30630000     -0.00610776     -0.00734261     -0.00498790       1
O              11.20100000     10.91540000      2.73412000      0.00003063      0.00429598      0.00099238       8
H              11.29170000      9.13937000      2.94758000      0.00275448     -0.01024360      0.00235482       1
H              10.53140000     11.15910000      0.98971400      0.00960393     -0.00467067      0.02540580       1
O               5.55245000      9.49610000     15.33320000      0.02228730      0.00249075     -0.00408226       8
H               6.91452000     10.23520000     14.23550000     -0.01029350     -0.01885330      0.01230460       1
H               4.22347000     10.74310000     15.27550000      0.00007105      0.00356849      0.00512951       1
O              13.57060000     10.63840000      8.85252000     -0.01278730      0.00403166      0.00170416       8
H              13.53140000      8.73438000      8.61100000     -0.01025520     -0.00734566      0.00802915       1
H              15.28790000     11.04870000      9.51397000     -0.00356566     -0.00296540      0.00159164       1
O               0.49386400     21.29850000     10.91730000     -0.00872466     -0.00769711     -0.00083326       8
H              -0.08644000     19.53490000     11.66310000     -0.01157960      0.00231162      0.00996600       1
H               0.89092500     22.28230000     12.40820000      0.00308726     -0.01122270     -0.00638938       1
O              12.23700000     20.25240000     19.79250000     -0.01194570      0.01052280     -0.00359921       8
H              11.77380000     21.09530000     18.22630000      0.00617902     -0.01212080      0.01282270       1
H              13.93380000     19.60360000     19.49280000     -0.00085420     -0.00254090     -0.00307137       1
O              19.81330000      2.81545000      9.31020000      0.01002280      0.01337040     -0.00027741       8
H              20.74140000      1.45126000     10.10480000     -0.00809606     -0.01274360     -0.00721950       1
H              18.08670000      2.42368000      8.96277000      0.00185192     -0.01264630     -0.00484931       1
O               4.28320000     19.32330000     -0.12554900     -0.00692597      0.00167107      0.00571620       8
H               4.16668000     22.12600000     -2.60513000     -0.00272513      0.00290165     -0.00174256       1
H               2.84404000     18.85610000      0.90751900     -0.00323162      0.00969770     -0.00853396       1
O              18.08930000     21.60370000     14.87160000      0.00867923      0.00913128      0.00587962       8
H              17.80040000     20.54590000     16.37850000     -0.00105415      0.00172161      0.00018710       1
H              19.77990000     22.23940000     15.12400000     -0.00047531     -0.01453650     -0.00845876       1
O              16.02440000      9.31848000      1.39753000     -0.00180934     -0.00839261      0.00203882       8
H              15.12500000     10.46050000      2.48365000      0.00192928      0.00918943     -0.00518174       1
H              17.46130000     10.12540000      0.65340400     -0.00251045      0.00537442      0.00766352       1
