192
Lattice="24.38918 0.0 0.0 0.0 24.38918 0.0 0.0 0.0 24.38918" Properties=species:S:1:pos:R:3:force:R:3 TotEnergy=-1102.67969 cutoff=-1.0 nneightol=1.2 pbc="T T T"
O       13.44990000       4.99818000       8.31382000      -0.00987388       0.03959780      -0.05593790
H       13.61460000       6.77511000       7.59908000       0.00542010      -0.03884290       0.02634940
H       12.91500000       4.21586000       6.68118000       0.01325530      -0.00151042       0.02734070
O       17.05800000       7.91415000      22.65290000      -0.01422150      -0.06395340      -0.00279154
H       17.04080000       6.01705000      22.16510000       0.01533390       0.04634460       0.01233030
H       15.26760000       8.01281000      23.13480000      -0.00171810       0.01694720      -0.00339565
O        9.72098000      15.92270000       0.37822900      -0.06757130      -0.06805460       0.07328260
H        9.76989000      15.32380000      23.18890000       0.01819840      -0.01373850      -0.08441040
H       10.47850000      17.29850000       0.93917600       0.04872120       0.08164500       0.00969145
O       15.09870000      19.94830000       8.54354000      -0.04246210       0.01580570      -0.03185840
H       16.10450000      18.45020000       8.64285000       0.00541387      -0.01020380       0.00045990
H       13.39790000      19.75590000       7.65548000       0.03812010       0.00027630       0.01548640
O        3.95559000      23.18650000      21.93800000       0.08077260      -0.01920290      -0.01276420
H        5.56402000      24.20804200      21.82670000      -0.02961160      -0.02996410      -0.00119632
H        2.83797000       0.04382000      22.31480000      -0.05212090       0.04652110       0.01044560
O       23.97803500       9.08381000       2.69860000       0.07181470       0.01480810      -0.07615740
H       22.36940000       9.72085000       2.49628000      -0.05329990       0.01632920       0.00041190
H        0.30795500       9.64549000       0.83979200      -0.02379490      -0.03179100       0.07265770
O        5.81569000       3.06769000       2.88932000       0.04825320      -0.01484040      -0.01343220
H        6.28497000       4.77463000       3.07649000       0.01276250       0.01821670       0.00035760
H        4.13024000       3.18045000       3.25814000      -0.06214090      -0.00413156       0.01187980
O       14.35780000       2.44506000      14.02000000      -0.00899178       0.00627085      -0.00058280
H       14.52710000       2.99692000      12.31340000       0.00669844       0.01004120      -0.00729904
H       13.53960000       0.86728300      13.71430000      -0.00276979      -0.02034040       0.00294119
O        3.45427000      14.82300000      10.35390000      -0.06590190      -0.02267060       0.04091490
H        2.10499000      13.69450000      11.27050000       0.02864920       0.03601240      -0.03566350
H        4.52766000      13.59850000       9.67051000       0.03036570      -0.03340650      -0.00859667
O       10.24920000      20.36850000      16.91700000       0.02107370       0.08735330      -0.02934620
H        9.93806000      18.72530000      17.22330000      -0.01148170      -0.07111790      -0.00032023
H       10.93370000      20.66010000      15.17200000      -0.00827924      -0.01379490       0.03154260
O        1.84336000      19.59330000      18.50370000      -0.04505990       0.04938420       0.08365670
H        2.64162000      18.64850000      17.31640000       0.05444600      -0.01966950      -0.04054770
H        2.71209000      20.84660000      19.68410000      -0.00029380      -0.03101070      -0.03521410
O        5.35622000      17.49870000       6.23253000      -0.02332770      -0.05093890       0.03695800
H        5.50469000      16.19360000       4.97869000       0.00196658       0.00844530      -0.02062210
H        4.45542000      16.23410000       7.47508000       0.01958410       0.05580210      -0.02054360
O       22.25140000      17.25290000       5.50938000      -0.03049420       0.01107960      -0.01409270
H       21.52400000      18.68590000       4.56189000       0.00465412      -0.01002660       0.00101245
H       23.94683900      17.74360000       5.64456000       0.02670230       0.00296751       0.00485782
O        3.80451000       7.54919000      17.79400000      -0.02570330       0.06997500       0.10555400
H        4.04994000       7.14034000      16.19590000       0.02247900      -0.02186390      -0.10896500
H        3.39424000       9.47920000      17.84590000      -0.00108197      -0.05326640       0.00250493
O       12.91140000      21.09320000      21.71080000       0.02462060       0.03313720       0.04912560
H       12.24120000      22.72870000      22.30770000       0.00573880      -0.00981693       0.00105372
H       11.88460000      20.91110000      20.32430000      -0.02869080      -0.02214780      -0.05796920
O        2.87595000      14.08590000       2.62365000      -0.04641420      -0.01943810      -0.01461000
H        2.59626000      14.14730000       0.75479100      -0.00090471       0.00539607       0.02848680
H        1.30427000      13.16270000       3.25088000       0.04362610       0.02095720      -0.01376530
O       18.20120000       7.96027000       6.32273000      -0.02029740      -0.02333070      -0.01807170
H       19.48400000       8.08256000       7.53063000       0.01491570       0.00410601       0.00786636
H       18.13740000       6.16697000       5.81670000      -0.00562645       0.02358170       0.00301607
O       24.09536100      24.25705500       0.72643300      -0.00728049       0.04930010       0.03178360
H       23.48738200       1.75432000       2.03004000       0.06224690      -0.08282160      -0.04391560
H        1.38399000      23.26880000       0.88135500      -0.04630350       0.04349820       0.02239080
O       18.86730000      11.00670000       2.18713000      -0.06041840      -0.04749230      -0.02224780
H       17.91390000       9.57578000       1.18812000       0.04068030       0.03329140      -0.01454570
H       17.87500000      10.30490000       3.56777000       0.01969970       0.01715710       0.02495780
O       18.68300000       0.65205300      16.61770000       0.03515780       0.03730400      -0.03495220
H       19.32120000      24.12340000      17.97940000      -0.02369280      -0.02407730       0.02443160
H       16.98660000       0.68459400      16.07280000      -0.01314870      -0.01127270       0.00985289
O       16.40420000       9.52430000      17.24660000       0.01423280      -0.03255770      -0.03446120
H       16.12240000       9.10522000      18.99460000       0.01037000      -0.00440124      -0.00616785
H       17.64340000       7.94432000      16.19850000      -0.00677204       0.02295460       0.03323550
O       15.52450000       3.41625000       3.68469000      -0.00845661       0.02232070      -0.02236720
H       16.30900000       2.89318000       2.12244000      -0.00303616      -0.00130182      -0.00258376
H       16.40970000       2.60249000       4.97984000       0.00924767      -0.02431610       0.02184400
O       22.50790000      21.43140000      15.20700000      -0.01427120       0.01271570      -0.01887390
H       21.87560000      23.01390000      15.86810000      -0.00500220      -0.00381245      -0.01229080
H       23.16240000      20.62590000      16.64700000       0.01772750      -0.01341200       0.01974990
O        1.51633000      12.20220000      18.04360000      -0.00444293      -0.03902240      -0.00914272
H        2.31585000      13.20730000      16.83430000       0.00839387       0.02505300      -0.01209390
H        1.24866000      13.09710000      19.62700000      -0.00614577       0.00963951       0.00819781
O        8.31502000       5.07957000       9.08588000      -0.06522100       0.02987620       0.03273340
H        7.62795000       3.61405000       8.35629000       0.00436376      -0.02286250      -0.01274440
H        9.94425000       5.37537000       8.61575000       0.05541360      -0.00342803      -0.01347600
O        3.43489000       1.37933000      16.21820000      -0.08301190       0.03409500       0.04768020
H        1.58476000       2.50492000      17.21170000       0.06361130      -0.03012550      -0.03526600
H        2.67956000      24.15044500      16.62080000       0.01132530      -0.00246257      -0.00631260
O       20.47610000      13.61840000      18.13270000      -0.10558200       0.11733900      -0.04015660
H       21.30220000      12.17580000      18.39160000       0.01914590      -0.08609010       0.00652774
H       18.58750000      13.75640000      17.24960000       0.08222960      -0.03412750       0.03805910
O        2.78753000      22.65890000       5.66401000       0.03494380      -0.02363730      -0.04405560
H        3.71700000      21.04830000       5.39898000      -0.01370020       0.01941990       0.00304220
H        2.34663000      22.56350000       7.34884000      -0.01597460      -0.00193574       0.04069730
O        0.75719200       4.34153000       4.22465000      -0.00630100      -0.00166020      -0.08932450
H       24.27829200       5.63818000       3.17873000       0.01857390      -0.00302760       0.01427510
H        0.14639500       4.51731000       5.81624000      -0.01326820       0.00433342       0.05746300
O        0.83784100      15.07760000      22.06120000       0.01500650       0.02194500      -0.01323610
H        1.38589000      16.65730000      21.10370000      -0.02343980      -0.02503360       0.02372330
H       23.55730000      15.32710000      22.82750000       0.01022710       0.01199440      -0.01233480
O       16.16390000      15.02170000      24.12828300       0.01971050      -0.06913680      -0.01829110
H       15.40090000      16.30800000       0.64546500      -0.02066280       0.02954830       0.03516710
H       16.91360000      13.57180000       0.74910500      -0.01475500       0.02437540      -0.00754199
O       18.80040000      16.85300000       9.19835000      -0.03870430      -0.03855340       0.00596347
H       17.83410000      15.35380000       8.55023000       0.02598770       0.02650440       0.02231290
H       20.09080000      17.19320000       7.99996000       0.02356770       0.00031072      -0.01853550
O       14.68340000      19.71180000       1.85628000      -0.04291010       0.02953490      -0.02731900
H       13.81260000      19.93180000       0.01019200       0.02492770       0.00203527       0.06168240
H       13.82920000      20.95850000       3.07152000       0.01911120      -0.03835230      -0.03659330
O        8.84714000       5.90716000      20.26650000       0.07537320      -0.05533360      -0.00990056
H        7.46110000       6.88778000      20.30170000      -0.06491590       0.03898080      -0.00766611
H        9.51329000       5.76029000      18.51020000      -0.00632965       0.01667830       0.02435130
O       17.99070000      18.03720000      14.52740000       0.02984670       0.02646790       0.02704820
H       18.61130000      17.48810000      12.98490000      -0.00692113      -0.02641950      -0.04810160
H       19.55050000      19.02490000      14.83950000      -0.01921620       0.00616401       0.01909550
O       13.93050000      21.51650000      12.85330000       0.01626290      -0.00778120       0.02141550
H       14.70840000      21.01450000      11.18860000      -0.01575140       0.00390189       0.01538590
H       15.05010000      20.68330000      14.10410000      -0.01232470       0.01068250      -0.01816410
O       16.80730000       2.04586000      22.71230000      -0.12262800       0.00533278      -0.00033860
H       17.53870000       0.70623000      21.80910000       0.01593260      -0.02225900      -0.01676930
H       14.48570000       1.60850000      22.25750000       0.10470600       0.02127760       0.02161620
O       23.70740000       4.77617000      18.52340000       0.10410100       0.01076960      -0.01811860
H       22.49810000       4.79976000      17.17700000      -0.01876520       0.00658762      -0.02092020
H        1.31367000       5.58631000      17.80090000      -0.08269930      -0.01133210       0.03531760
O        7.21600000      10.90860000       1.89760000      -0.01772580       0.11054900      -0.03415780
H        8.93062000      11.52790000       1.78023000       0.00589519      -0.01670710       0.00181092
H        6.49769000      12.94410000       1.24412000       0.01942340      -0.09877050       0.03729440
O       11.27480000      10.45770000      12.52580000       0.02182880       0.01493030       0.00714152
H       10.65000000       9.08391000      13.53220000       0.00476477      -0.00623681       0.00456270
H       10.59060000      10.30500000      10.89640000      -0.02513460       0.00076305      -0.01853010
O       19.64300000       5.98734000      15.27390000       0.03301570       0.08294790       0.00732282
H       18.57090000       4.72927000      14.88420000      -0.04205610      -0.06122290      -0.01217640
H       20.45300000       7.30074000      10.86190000      -0.36412900      -0.00695476       0.15497400
O       22.76850000       9.12057000      21.59050000      -0.03587450       0.00701482      -0.00172089
H       21.00840000       9.22080000      22.11950000       0.00967781       0.00822999       0.01531530
H       22.28970000       8.21178000      20.09290000       0.02483570      -0.01594970      -0.01073890
O       12.15310000       9.21511000      23.52190000       0.01547540      -0.01743770       0.02545610
H       11.83950000      10.91540000      22.95050000      -0.01242250      -0.01305670      -0.01577710
H       10.97510000       7.93408000      22.92570000       0.00031993       0.02301930      -0.00870834
O       10.28560000       1.08343000      22.89680000       0.03745280      -0.06881450      -0.03509870
H        9.96392000       1.28234000       0.17443600      -0.01887780       0.01897610       0.06226210
H        9.95167000       2.46546000      21.92110000      -0.01964520       0.05659030      -0.02562970
O       20.07440000      16.89720000      22.45980000      -0.01707330      -0.05388190       0.00553802
H       20.20740000      15.35750000      21.34910000       0.00581460       0.03296990      -0.00099073
H       18.50610000      16.15830000      23.46730000       0.03868800       0.03102530      -0.02008860
O       11.69260000      13.76620000       5.97068000      -0.06289810      -0.03517610      -0.00056642
H       12.06510000      15.29360000       5.24903000       0.00163309       0.04877230      -0.02612560
H       13.19380000      13.14570000       6.59999000       0.03143260      -0.01855240       0.02778910
O       10.65270000      20.35450000       5.57296000       0.05621780       0.00809201      -0.01341040
H        9.88334000      21.71420000       6.40829000      -0.00398031       0.04962200       0.00728312
H        9.37861000      19.25480000       5.86280000      -0.05246180      -0.06285250       0.00297051
O       21.83300000       7.29474000      10.38080000       0.38994000      -0.04988960      -0.16114000
H       22.94330000       5.78254000       9.76462000      -0.01664620      -0.00328255       0.01960230
H       22.78790000       8.76727000      10.21250000       0.00773338       0.04897550       0.01282490
O       18.48540000      21.21830000      19.97550000      -0.08629460      -0.01011640       0.04587300
H       19.41510000      19.84500000      20.81680000      -0.01123690       0.00363568      -0.00236604
H       16.31560000      21.01000000      20.82170000       0.08978570       0.00470023      -0.03928840
O       20.36040000      21.59420000       2.45102000       0.00726561       0.00584103       0.03719390
H       19.25380000      21.13680000       1.15794000      -0.01235650      -0.00388765      -0.02609920
H       21.59900000      22.88660000       1.94275000       0.00375202      -0.01743610      -0.01489820
O       15.59450000      12.43010000       9.44255000       0.02940810       0.06494250      -0.00590564
H       16.17500000      11.82890000       7.90044000       0.00096093      -0.04026150      -0.01196590
H       14.47780000      11.66540000      10.55380000      -0.02472450      -0.03642440       0.01675130
O        8.16290000       0.10629100       6.99512000      -0.08906580      -0.03233540      -0.00393469
H        6.55333000       0.23041600       5.80160000       0.05594840       0.00326678       0.02662220
H        7.24555000      23.38100000       8.29441000       0.02515080       0.03498960      -0.01506020
O        1.05308000       3.60832000       9.07504000      -0.04255800       0.03267260      -0.02288620
H        0.93142600       1.84944000       8.94548000      -0.02058180      -0.03608090      -0.00604653
H        2.24178000       3.77888000      10.31500000       0.04582580       0.01781410       0.04940630
O        4.70352000       5.48409000      13.13210000       0.06121160      -0.00731050       0.00251794
H        5.87991000       6.32741000      11.81480000      -0.02238510      -0.03206070       0.04069810
H        5.82405000       4.38437000      14.37650000      -0.03849480       0.03538430      -0.05293770
O       10.98930000      14.70400000      15.68940000      -0.00308731       0.01336020       0.00122550
H       11.46890000      13.75380000      14.20350000      -0.00244179      -0.00559958       0.00664198
H       12.43820000      15.77210000      16.17510000      -0.00260254      -0.01668750       0.00101933
O       14.93500000      16.33000000      18.30400000       0.02549010      -0.05431580       0.10113800
H       15.92940000      15.14380000      20.65340000      -0.04429600       0.04504540      -0.08064890
H       16.48120000      17.02280000      17.73800000       0.01441720       0.01320570      -0.00940966
O       11.81360000       6.71657000      15.99440000      -0.07374810       0.07313600       0.04522900
H       13.21450000       7.78028000      16.24860000       0.03631480       0.01357080       0.00619845
H       12.16260000       5.27704000      15.23390000       0.03983890      -0.08956170      -0.04884620
O        9.83454000      12.49380000      20.39330000      -0.02287700       0.01877770      -0.04216470
H        8.03992000      11.92920000      20.50570000       0.03586720       0.01111760      -0.00968821
H       10.25100000      13.17470000      18.53220000      -0.01425590      -0.01998320       0.04684710
O        5.26648000      22.97650000      11.69010000      -0.01693040       0.04671590      -0.07474920
H        5.61264000      21.31500000      11.84410000       0.01244330      -0.06461410       0.02840480
H        5.34488000      23.98760000      13.10460000       0.00128437       0.01200880       0.04246030
O       17.96960000      23.86180000       6.32127000      -0.00119022      -0.00452828      -0.00059677
H       18.50530000      23.69270000       4.56653000       0.00561362      -0.00911071       0.00748177
H       17.79880000      22.08360000       6.82142000      -0.00860792       0.01903150      -0.00086807
O        7.16025000      10.77590000       8.87915000       0.02870720       0.11310500      -0.03130030
H        7.29058000       9.09594000       8.60479000       0.00490186      -0.07173230      -0.02479630
H        8.88381000      12.33810000       6.39294000      -0.01739030      -0.03012900       0.04989010
O        4.99813000      17.34860000      14.49780000       0.02457020      -0.02316410       0.01518170
H        6.55568000      16.30630000      14.67890000      -0.01950960       0.02177370      -0.00104868
H        3.91225000      16.17530000      13.62670000       0.00369304       0.00870405      -0.01139800
O       22.62600000      23.41750000       8.79985000      -0.04126470       0.03229230      -0.01483890
H       22.12760000      22.46000000      10.21220000       0.00598693      -0.01543380       0.02402860
H       20.91940000      24.26587500       8.45697000       0.04052240      -0.01988770      -0.00671150
O       22.65970000      12.39290000      12.24040000      -0.00953957       0.00337233       0.07708980
H       21.59640000      13.85110000      13.03750000       0.03159400      -0.04936820      -0.02125340
H       23.20850000      10.63400000      15.30270000      -0.01024560       0.04198780      -0.05562900
