192
Lattice="22.7394 0.0 0.0 0.0 22.7394 0.0 0.0 0.0 22.7394" Properties=species:S:1:pos:R:3:force:R:3 TotEnergy=-1103.88473 cutoff=-1.0 nneightol=1.2 pbc="T T T"
O        6.08073000      12.36330000      16.11640000      -0.00114314       0.00159069       0.00369392
H        5.07172000      13.84810000      16.41690000       0.00235212      -0.00079005       0.00141758
H        6.49689000      11.72260000      17.79490000      -0.00074561       0.00061006       0.00091240
O       17.82200000       6.46408000       0.79000700       0.00319223       0.00140409       0.00396921
H       18.81020000       7.87789000       1.39532000      -0.00051884      -0.00367405      -0.00168815
H       16.55620000       6.09793000       2.04510000       0.00088154       0.00192555       0.00230587
O        3.99528000       0.25090000       8.01894000      -0.00326951      -0.00492535       0.00069320
H        3.75301000      21.96120000       6.54510000      -0.00243666       0.00399133      -0.00078219
H        5.18024000      21.99200000       8.98716000       0.00043474       0.00089242       0.00208484
O        5.17034000      17.69650000      22.65320000       0.00404315       0.00403754      -0.01930480
H        4.22480000      16.12300000      22.38970000      -0.00318677       0.00271963       0.00228525
H        6.96290000      17.21980000      22.14400000      -0.01451820       0.00234994      -0.00415504
O        7.95236000       8.06287000      14.14920000      -0.00516480       0.00010407      -0.00140294
H        7.55126000       7.83414000      12.36970000      -0.00107582       0.00123225      -0.00012466
H        7.24484000       9.73484000      14.46240000      -0.00075240      -0.00331224       0.00096887
O        1.53939000       4.60393000       8.35827000       0.00090706       0.00177912       0.00071642
H        2.74494000       5.97929000       8.67482000      -0.00007674       0.00221690       0.00100122
H        2.56823000       3.08153000       8.35051000       0.00032001       0.00072738       0.00084424
O        5.78419000      13.55730000       3.03402000      -0.00677684      -0.00167257       0.00533220
H        4.08320000      14.11800000       3.36041000       0.00257968      -0.00581621      -0.00213769
H        6.76500000      14.91640000       3.77068000       0.00137256      -0.00770760      -0.00182570
O       11.53250000       7.53173000       2.50958000      -0.00314083      -0.00332164      -0.00055268
H        9.71973000       7.44361000       2.33932000       0.00402358       0.00160248       0.00403959
H       11.81430000       8.87417000       3.76653000       0.00121262       0.00256384      -0.00324967
O       11.86720000      14.04610000      18.58730000       0.00592555      -0.00449805      -0.00269529
H       13.50440000      14.83470000      18.57010000       0.00200272       0.00065892      -0.00025867
H       12.11840000      12.24460000      18.41860000       0.00054003      -0.00293375      -0.00026071
O       18.41940000      20.14730000       9.80994000       0.00432898      -0.00067762       0.00191906
H       19.98630000      21.02300000       9.57334000      -0.00282841       0.00268671      -0.00417385
H       17.98940000      19.51060000       8.16995000      -0.00061147       0.00123441       0.00153431
O       13.07600000       3.51101000       8.92894000      -0.00945129      -0.01210670      -0.00098372
H        9.99755000       4.69021000       7.92273000      -0.01991540       0.00083440      -0.00128438
H       13.05930000       4.22453000      10.59300000       0.00418821      -0.00243740       0.00073477
O       22.52380000       9.86647000       1.49178000      -0.00319574       0.00819708       0.00482891
H        0.67650000       8.27983000       1.58286000       0.00003930       0.00415784       0.00113354
H       22.68870000      10.79860000       3.15621000       0.00327854      -0.01721290      -0.00942649
O       18.16230000      15.00350000       7.56644000       0.00199010      -0.00186482       0.00365391
H       19.57880000      15.71920000       6.65423000      -0.00306622      -0.00237342       0.00142529
H       18.68630000      14.68790000       9.29684000      -0.00228744       0.00344634      -0.00232339
O        3.58502000       0.00037100      16.68480000      -0.00207739       0.00341207       0.00450415
H        2.88646000      22.32764700      18.34150000       0.00223630       0.00287819      -0.00300489
H        3.71729000       1.85486000      16.64680000      -0.00117407      -0.00107884       0.00188267
O        6.49346000      10.22670000      20.80730000       0.00060069       0.00081796       0.00223783
H        6.96307000       8.56304000      21.36830000      -0.00041995       0.00175887       0.00141862
H        6.19164000      11.22230000      22.30450000       0.00149052       0.00096339      -0.00074032
O        1.37217000      12.66750000      10.27600000      -0.00223961      -0.00044978       0.00151790
H        0.31239900      11.82220000      11.54390000       0.00257192       0.00160541       0.00100507
H        1.26817000      14.45500000      10.64910000       0.00252088       0.00011217       0.00021009
O        6.36442000      14.98730000      11.53540000       0.00160365      -0.00064782       0.00067271
H        6.78592000      14.35930000      13.19410000       0.00265683      -0.00251868      -0.00324349
H        5.65242000      13.58930000      10.62700000       0.00051535      -0.00186767       0.00162416
O       13.31150000      16.87930000       7.06691000      -0.00374179       0.00886570       0.00719677
H       14.98670000      16.41570000       7.65059000      -0.00372028       0.00171708      -0.00255611
H       12.89510000      18.54970000       7.84705000       0.00390572      -0.01001640      -0.00475009
O       19.32050000      18.26660000      15.42770000      -0.00042397       0.00147906      -0.00381772
H       20.50270000      19.44840000      14.66560000      -0.00199869       0.00132809       0.00030923
H       19.97710000      17.86590000      17.11800000       0.00067466       0.00211385      -0.00319147
O        6.85744000      18.46200000       4.10300000       0.02781480       0.01049160       0.04651220
H        6.32324000      18.07750000       2.41553000      -0.02333630      -0.00017401      -0.02350420
H        8.66260000      18.62270000       4.00260000       0.00116229       0.00213486       0.00208629
O        6.87770000      19.18890000       9.17470000       0.00132276       0.00144501       0.00658027
H        6.79830000      18.83170000       7.38555000       0.00259924      -0.00450090      -0.00581493
H        7.01277000      17.56320000      10.05100000       0.00127236      -0.00252055      -0.00067101
O        0.03487200      12.41540000       5.56458000       0.00284845       0.00146530      -0.00281152
H        0.03997200      14.18710000       5.10266000      -0.00234732      -0.00338585       0.00016411
H        0.59462000      12.30700000       7.33711000      -0.00141923       0.00018178      -0.00445005
O       12.84280000      14.52290000      13.42670000      -0.00081180       0.00392963      -0.00135222
H       13.19790000      16.27190000      12.89960000      -0.00060087      -0.00254203       0.00007348
H       12.05300000      14.69690000      15.06880000      -0.00104184      -0.00371147      -0.00282363
O       14.68630000      18.41420000      17.96330000       0.00383555       0.00496831      -0.00156391
H       14.51820000      18.92800000      16.16110000       0.00487953      -0.00533103      -0.00179685
H       16.49190000      18.30280000      18.29310000      -0.00859673      -0.00045679      -0.00216557
O       22.68832900      21.55020000      13.39100000       0.00314368       0.00274525       0.00454272
H       21.68629000       0.28340000      13.74570000       0.00069443       0.00066876      -0.00452592
H        1.42661000      21.75780000      14.52020000      -0.00418336       0.00216206      -0.00127413
O       11.37460000      11.42600000       5.73994000       0.00519640       0.00179966       0.00231144
H       13.77740000       0.18436800      20.74846000      -0.00263943       0.00025843       0.00147235
H       11.92490000      12.79560000       6.81873000      -0.01010650      -0.00706596      -0.00543453
O       16.98130000       9.80591000       6.63566000       0.00561503       0.00017954      -0.00169246
H       18.58190000       9.04136000       6.24345000      -0.00233590       0.00298183       0.00298953
H       17.37040000      11.59790000       6.79837000      -0.00049792      -0.00473104      -0.00154758
O        2.04485000      21.84940000      21.70860000       0.00495166      -0.00014753       0.00304923
H        0.36793300      21.76960000      22.37100000      -0.00068726       0.00145804       0.00136188
H        3.05385000      20.58680000      22.60000000      -0.00171868      -0.00061508      -0.00533270
O       13.68910000       9.66466000      11.82750000      -0.00011432       0.00067319      -0.00376596
H       13.86580000       9.14902000      10.09300000       0.00326119       0.00174423      -0.00031002
H       13.10020000      11.39730000      11.81090000      -0.00095070       0.00113696      -0.00288451
O        7.02452000       1.57467000       4.15587000       0.00919446       0.00576776      -0.00344489
H        8.67745000       0.63778400       3.61915000      -0.00689831       0.00001218       0.00519255
H        6.61831000       2.69153000       2.75225000       0.00024900       0.00568080      -0.00322953
O       14.19260000      19.43120000      12.95690000       0.00002395       0.01038660       0.00137962
H       13.22160000      20.48890000      11.45290000      -0.00386526      -0.00796939       0.00240958
H       15.90590000      19.60820000      12.35620000       0.00236037      -0.00187261       0.00170439
O       21.49000000       5.46469000      12.49670000      -0.00127618      -0.00095957      -0.00065797
H       21.06690000       7.20743000      12.21710000       0.00052731      -0.00129669       0.00247813
H       22.53760000       4.97657000      11.03820000      -0.00164354      -0.00089360      -0.00181621
O        4.09043000       5.05815000      16.62010000      -0.00016712       0.00436322       0.00009772
H        2.55659000       5.91957000      17.09520000       0.00524635      -0.00216704      -0.00255086
H        5.07728000       6.20323000      15.57140000      -0.00011368      -0.00207778       0.00347166
O        0.77174500      15.23150000      15.49730000       0.00500824      -0.00041327      -0.00077797
H        1.99811000      16.53660000      15.90770000       0.00121889      -0.00340913      -0.00066793
H       22.26739800      16.00310000      14.42770000       0.00170791      -0.00007132       0.00445281
O       22.46400000      17.40870000       5.08562000       0.00067121       0.00641464       0.00575497
H        0.36970000      17.62580000       6.81351000       0.00140914       0.00050826      -0.00256729
H       22.12220000      19.15680000       4.64749000       0.00043495      -0.00282673      -0.00090499
O       14.44940000      16.07880000       1.96304000      -0.00257747      -0.00074882      -0.00127628
H       13.90930000      15.53790000       3.62592000      -0.00139424       0.00158108      -0.00055759
H       14.09730000      17.85280000       2.01842000       0.00587151       0.00030488       0.00220385
O       13.47290000       3.56653000      15.42700000       0.00472551       0.00258789      -0.01228800
H       15.14120000       2.76858000      15.37290000       0.00076189       0.00445057      -0.00162056
H       13.74550000       5.35511000      15.59270000       0.00144478       0.00123297       0.00236749
O       12.14240000      21.41350000       9.32172000       0.00109035       0.00921035      -0.00519401
H       10.34580000      21.19880000       9.25069000      -0.00149150      -0.00116231       0.00327527
H       12.66440000       1.60060000       9.13170000       0.00500328       0.00803967       0.00210045
O       16.60980000       7.02220000      18.72440000      -0.00374459       0.00381525      -0.00016324
H       16.70600000       6.81479000      20.55930000       0.00172609       0.00122531       0.00192868
H       15.12220000       8.04954000      18.35070000       0.00515252      -0.00572919       0.00156754
O       19.22560000       0.34507400      20.08920000      -0.00428534       0.00205017       0.00002575
H       18.02950000      21.76486400      19.70760000       0.00714129       0.00439080      -0.00141502
H       19.26560000       1.43566000      18.59560000       0.00053700      -0.00580748       0.00008137
O       21.58940000      22.49119000       5.53628000      -0.00327156       0.00440163      -0.00375694
H       22.38380000       1.31673000       6.01482000      -0.00329806      -0.00174387      -0.00130948
H       20.07310000       0.17008300       4.52611000       0.00576936       0.00158967       0.00413617
O        7.02405000       9.39188000       5.94503000       0.00059453      -0.00391991      -0.00496053
H        9.57909000      10.81640000       6.04425000       0.00392155       0.00595311       0.00637705
H        6.25465000      10.51830000       4.72577000       0.00012756      -0.00584024       0.00564271
O       14.19290000       3.62069000       3.84195000      -0.00291443      -0.00320012       0.00220453
H       14.42480000       3.63592000       5.66409000      -0.00516534       0.00641487       0.00137085
H       12.99220000       5.01304000       3.40774000       0.00253632       0.00037108       0.00303151
O        7.08428000       4.87298000      22.36190000       0.01976670      -0.00805122      -0.00646060
H        8.35224000       4.26308000      21.17280000      -0.01129380       0.00572209       0.00878341
H        5.51497000       4.83648000      21.43990000      -0.01300380      -0.00018866      -0.00065018
O        1.83010000       5.10670000      21.84360000      -0.00226281       0.00178494       0.00371460
H        1.10703000       3.45984000      22.06050000       0.00184550       0.00084649      -0.00047293
H        0.71842000       5.99696000      20.67740000       0.00245768      -0.00134573      -0.00060354
O       20.07080000      17.88880000      20.23390000      -0.00412040      -0.00125001       0.00001611
H       20.81970000      19.32750000      21.00020000       0.00377792      -0.00016135       0.00143268
H       20.00800000      16.45010000      21.42800000      -0.00063632      -0.00067104      -0.00340741
O        4.86290000      17.52860000      17.31600000      -0.00213138       0.00481063      -0.00113392
H        4.47780000      18.61100000      18.72780000       0.00342689      -0.00850992       0.00068485
H        6.33891000      18.27380000      16.51550000      -0.00126964      -0.00131741      -0.00021398
O       18.49830000       3.05986000      15.79880000       0.00054799       0.00277110       0.00040721
H       19.60500000       3.83711000      14.51060000      -0.00117645      -0.00057517      -0.00091009
H       18.09880000       4.49891000      16.88100000      -0.00118274       0.00132176      -0.00061153
O        9.68824000      16.73030000      21.86940000       0.00372748       0.00965276       0.00735946
H       10.66080000      18.16640000      22.36970000       0.00283334      -0.00616569      -0.00219017
H       10.77870000      15.53260000      20.94910000      -0.00788736       0.00110337      -0.00099946
O       18.04740000      14.10890000      12.92060000      -0.00363528       0.00280341       0.00020375
H       16.27290000      13.76450000      13.26670000       0.00015232       0.00082474      -0.00374917
H       18.33850000      15.74660000      13.75690000       0.00137882      -0.00370913      -0.00149230
O        1.47133000      17.92850000       9.80761000       0.00042586       0.01007390       0.00891303
H        0.80785300      19.38910000      10.75810000       0.00922251      -0.01250110      -0.00707774
H        3.30089000      18.13910000       9.73091000      -0.00860588       0.00376518       0.00306372
O        7.35778000       1.42625000      13.36800000      -0.00559585       0.00062590       0.00079641
H        6.75671000       2.85401000      12.39370000      -0.00005266      -0.00628609       0.00225113
H        5.95804000       0.28307900      13.71250000       0.00718908       0.00888664      -0.00325423
O        9.77985000       2.05000000      17.44790000      -0.02555540      -0.00990150       0.03001140
H        8.52535000       1.83583000      16.00110000      -0.00278489      -0.00939335      -0.00383977
H       11.36160000       2.75781000      16.63670000       0.02379690       0.00392071      -0.00718475
O        8.11710000       4.75153000       7.72757000       0.01031320      -0.00083674      -0.00853874
H        7.60792000       6.47764000       7.09731000       0.01018000      -0.01280100      -0.00282342
H        7.34575000       2.71820000       5.74994000       0.00360722       0.00698815       0.00011121
O        2.28138000      13.89390000      21.57630000      -0.00597902      -0.00409055      -0.00113195
H        1.56397000      12.37630000      22.32840000      -0.00048029      -0.00018217      -0.00197972
H        2.28814000      13.65050000      19.78700000      -0.00408829      -0.00143595      -0.00093896
O        9.11962000      19.30370000      14.93410000       0.00046384       0.00116582       0.00028228
H        9.27904000      19.31760000      13.12810000       0.00001991      -0.00008905      -0.00098425
H       10.45240000      20.39910000      15.47230000       0.00123386      -0.00355839      -0.00262932
O       18.73350000      14.02910000      22.67582200      -0.00456673      -0.00328159       0.00027033
H       17.22860000      14.57420000       0.85394100       0.00109822      -0.00176181       0.00055692
H       19.42700000      12.54560000       0.70107900       0.00129661      -0.00035589       0.00119135
O       12.51340000       9.15757000      16.67030000      -0.00011730      -0.00147834      -0.00169990
H       13.23520000       9.49484000      15.00350000      -0.00141310      -0.00102522      -0.00017035
H       10.82890000       8.60321000      16.20830000      -0.00223338      -0.00010006      -0.00134132
O       17.71230000       0.48922100       2.34755000       0.00393953       0.00238166      -0.00557261
H       18.59220000       0.96996300       0.81244500      -0.00552731      -0.00197134       0.00096874
H       16.60460000       1.91935000       2.72197000       0.00000893      -0.00424637       0.00094516
O       11.00830000      21.99570000       2.97674000       0.00568413       0.00518745       0.00120900
H       11.46690000      22.10870000       1.21084000      -0.00144409      -0.00230306      -0.00219186
H       12.30200000       0.25510000       3.82773000      -0.00011330      -0.00144349      -0.00055764
O       12.39480000      21.75390000      20.52280000      -0.00101045       0.01170450      -0.00102059
H       10.24780000       0.61920000      18.61650000      -0.00240213       0.00883502      -0.01313570
H       13.21300000      20.37800000      19.47570000       0.00125818      -0.00518486       0.00413819
O       21.74990000       7.40648000      18.14440000       0.00442110       0.00169132      -0.00940015
H       21.89700000       8.06853000      16.43140000      -0.00148348      -0.00106426       0.00785755
H       20.00530000       7.76518000      18.54290000      -0.00278474      -0.00013188       0.00236212
O       21.50160000      10.77600000      14.13210000       0.00003707       0.00010802       0.00081832
H       22.52610000      11.82120000      15.24040000      -0.00065116      -0.00029414      -0.00363072
H       20.00910000      11.86520000      13.82800000      -0.00002812      -0.00313706       0.00061451
O        4.75217000       8.51153000       9.82435000      -0.00670454      -0.00061134       0.00081154
H        3.63774000       9.88876000      10.24290000       0.00309136      -0.00309468      -0.00099337
H        5.57730000       9.01364000       8.01553000       0.00181320       0.00449332       0.00707964
