192
Lattice="24.31734 0.0 0.0 0.0 24.31734 0.0 0.0 0.0 24.31734" Properties=species:S:1:pos:R:3:force:R:3 TotEnergy=-1103.42987 cutoff=-1.0 nneightol=1.2 pbc="T T T"
O       24.10170000      22.35827000      12.83198000       0.05795020       0.05091380       0.01070010
H       22.72060000      21.38769000      13.12408000      -0.06329160      -0.03523170       0.00435293
H        0.97146000      21.41213000      11.94308000       0.02083240      -0.02686280      -0.01628560
O        2.62572000      22.72666000      23.75141200      -0.01797090       0.01366720       0.24622000
H        1.81012000      24.28856000      23.76346600      -0.01968840       0.03081770       0.01821570
H        2.77182000      22.58106000      22.23543000       0.03820440      -0.04302780      -0.26991200
O       13.26890000       1.42236000      17.63570000       0.01378780      -0.02706470       0.02046860
H       13.78210000       2.66375000      18.88770000      -0.00095194       0.00115832      -0.00383696
H       13.80280000      24.12309900      18.43870000      -0.00752303       0.01889950      -0.01773360
O       22.54227000      11.21164000      21.55484000       0.00619626       0.06279210       0.02524080
H       23.76641500      11.11404000      20.24055000       0.00450603      -0.01390590      -0.01541550
H       22.86392000      13.06624000      22.23286000      -0.02293680      -0.05056330      -0.01978510
O        5.28484000      10.33386000      16.37490000       0.05693850       0.00623413       0.03322160
H        6.38155000      10.96426000      18.00870000      -0.04259720      -0.02765760      -0.05494170
H        6.45906000       9.21776000      15.41860000      -0.01519730       0.01758210       0.02020380
O       17.89942000      11.59000000       6.23303000       0.00650089      -0.06013950      -0.04900530
H       16.89875000      12.93240000       5.70156000      -0.02272960       0.03661610      -0.00134914
H       17.57897000      10.46250000       4.59396000       0.01115090       0.02134070       0.05126230
O       19.22246000       5.19626000      13.50440000      -0.07193200      -0.00565943      -0.00064756
H       20.71526000       4.34106000      13.15520000       0.04070200      -0.01943360      -0.00941178
H       17.90286000       3.80416000      13.45900000       0.01904700       0.02317070      -0.00406490
O        2.56892000      14.08858000       7.56207000       0.00429969      -0.20113700      -0.06887140
H        3.77269000      12.93508000       8.41485000      -0.00872326       0.02221820      -0.00566957
H        2.61144000      15.58118000       8.09399000       0.01541950       0.17947000       0.07798850
O        5.78036000      15.73648000      18.61390000      -0.00533767       0.00166296      -0.00655139
H        4.11616000      15.44698000      17.89720000       0.00529570       0.00134830      -0.01392830
H        5.46876000      15.73208000      20.37150000       0.00558723      -0.00173059       0.01808570
O       11.10990000      20.76478000      24.23378000       0.05913660      -0.03691290       0.01213450
H       13.11290000      20.53638000      24.22978000      -0.05320790       0.01201730      -0.00878193
H       10.73120000      19.12728000       0.78274000      -0.00942155       0.02401300      -0.00273548
O       10.50194000       2.42535000       9.63941000       0.00045569      -0.07003660      -0.00101715
H       10.35104000       0.37205800       9.51363000      -0.00759557       0.07353310       0.00602994
H       10.87684000       2.82280000       7.91754000      -0.00084282       0.00732956      -0.00480588
O       13.12134000       3.36106000       3.19682000       0.06002270      -0.01936470       0.01511250
H       11.88784000       2.39546000       2.27842000      -0.01003110       0.00163060      -0.00852654
H       14.80718000       2.47036000       2.85412000      -0.04385150       0.02398200       0.00030051
O       10.96500000      15.22568000       8.10084000      -0.00566245      -0.00469641       0.01887290
H       10.02570000      16.33628000       7.08194000      -0.00819741       0.00862163      -0.05075540
H       10.24760000      15.91638000       9.58774000       0.00794465      -0.00838318       0.03386370
O        2.54026000      14.68830000      14.84106000      -0.01863720      -0.03631660      -0.01410800
H        0.73696000      14.09170000      14.81266000       0.00195849       0.02420650       0.00141579
H        3.15126000      12.96170000      14.48076000       0.01862120       0.02194870       0.00842109
O        5.00489000       2.60295000       3.79481000      -0.08347100       0.05103240      -0.01295580
H        5.11018000       1.21693000       4.93205000      -0.01147390      -0.01777000       0.01006050
H        2.98067000       3.15890000       3.78237000       0.08910270      -0.03366960       0.00005733
O       14.95478000      23.92400000       7.25486000      -0.14681800       0.06515520       0.02204200
H       16.42568000      23.86240000       6.49506000       0.10661000      -0.00402715      -0.05309880
H       14.01508000       1.17606000       6.34916000       0.03831100      -0.05819440       0.02861430
O       17.23698000      10.62280000      22.36990000       0.05218810       0.02367490      -0.00280144
H       16.32418000       9.99819000      20.98150000      -0.01928970      -0.01052050      -0.02823990
H       19.01158000      10.88770000      21.69480000      -0.03439380      -0.00534407       0.01906410
O        4.17524000      14.40202000       2.41154000      -0.00508460       0.01414950       0.00049518
H        3.83934000      14.61832000       4.19814000       0.00067866      -0.00794622      -0.00007898
H        3.66604000      12.68782000       2.03184000       0.00110099      -0.00543551      -0.00252551
O       19.50502000      20.61250000      13.27526000      -0.03788290       0.04440470      -0.06538280
H       18.05872000      21.86820000      13.21436000       0.03256090      -0.02310900       0.00353132
H       19.67342000      20.03560000      14.88896000      -0.00507018      -0.02428380       0.06250560
O       11.49572000      12.45644000       1.66258000      -0.04938080      -0.05147030      -0.08037810
H       10.38282000      11.52524000       0.18223600       0.03178240       0.04824810       0.05699380
H       12.71622000      11.09454000       1.75917000       0.01363440      -0.00167047       0.02196550
O        3.27126000      18.23860000      10.72744000      -0.06329550      -0.06005610       0.02216750
H        4.72956000      19.11060000      10.77534000       0.06906210       0.03752050       0.00700171
H        3.37306000      16.95080000      12.15344000      -0.00664069       0.02499740      -0.02256400
O       10.44594000       8.02598000      16.71502000       0.02916390      -0.03807720       0.05073420
H       12.32114000       8.08441000      17.13952000      -0.02492810       0.01665960      -0.02223610
H       10.10314000       7.00692000      18.36932000      -0.01159250       0.02333260      -0.04397310
O        9.47635000       1.57604000       0.27466100      -0.05043150       0.03836580       0.00347879
H        7.67828000       1.52337000       0.79809000       0.01740070       0.01955880      -0.00414013
H        9.73139000      24.19311900       0.52170700       0.02735400      -0.06497360      -0.00576978
O       19.73286000       0.71513500       4.67416000       0.00076823      -0.09282020       0.00552324
H       20.39746000       2.20526000       5.06716000       0.02225160       0.11207100       0.01459900
H       21.22436000      24.03328700       5.21796000      -0.02131400      -0.01973480      -0.01158640
O       22.18937000      12.58132000       8.58026000      -0.03051490      -0.01025470       0.03829510
H       20.80048000      12.52502000       7.38006000       0.01328260      -0.00458701      -0.01498850
H       23.84334400      13.12552000       8.19906000       0.01620690       0.01157620      -0.02574500
O        9.48156000      14.74966000      14.07980000       0.05670700       0.00369535      -0.08086100
H        8.20159000      13.64056000      13.66250000      -0.02950400      -0.03695010      -0.02349810
H        8.97334000      15.26136000      15.57830000      -0.02610470       0.03435300       0.10634100
O        9.52624000      19.29880000      18.96270000      -0.03936060      -0.02912000      -0.11043000
H        7.89874000      18.34170000      18.39780000       0.04169780       0.02515990       0.03711290
H        9.78934000      19.61470000      20.61990000      -0.00320691       0.00823879       0.07601900
O        3.37816000       9.37566000       0.90252000       0.01869940       0.01244880       0.01006170
H        3.77276000       8.49176000       2.40742000       0.02758010       0.00019425       0.01984140
H        1.74596000       8.61456000       0.78942000      -0.03197980      -0.00592497      -0.02849610
O       10.31910000       6.15746000      21.31730000      -0.06109520       0.00705555       0.01021940
H       12.01730000       5.87916000      21.27170000       0.06704870      -0.00776391       0.00340691
H        9.68090000       4.78716000      22.32490000      -0.00223917      -0.00467644      -0.00032889
O        3.77851000      22.74898000      17.29010000      -0.09368400      -0.02441280       0.00426247
H        2.24271000      22.59968000      16.06000000       0.06344600       0.00754775       0.02433400
H        5.30437000      23.35808000      16.68000000       0.02395930       0.01895190      -0.02977560
O        0.39664400      18.46250000       1.47315000       0.00187695      -0.04480750       0.01262600
H        1.61006000      17.02940000       1.89445000      -0.01543260       0.03533980      -0.01654420
H        1.18622000      19.89260000       0.69832500       0.01790190       0.00581548      -0.00512863
O       23.68706000       2.64963000      11.95900000      -0.01479950       0.00703040       0.01867810
H       24.19981200       3.39752000      10.49060000       0.01300730       0.04637100      -0.04251660
H       24.16891700       0.97750300      11.60210000      -0.00575088      -0.03916410       0.01118110
O       15.50178000       4.42672000      21.39108000      -0.00645675      -0.01027960       0.00202590
H       16.90478000       4.81952000      20.31548000       0.00747662       0.00655527      -0.00255604
H       15.96538000       2.92872000      22.34988000       0.00235975       0.01069210       0.00297119
O        4.86032000       7.28232000       6.49884000       0.03390360      -0.04413460       0.02426150
H        6.11037000       7.42882000       7.96364000      -0.03159280      -0.00231725      -0.04137810
H        5.11967000       5.45902000       5.79674000      -0.00134416       0.04693350       0.01811820
O        9.26398000      16.67646000       3.11927000      -0.01740730      -0.06086580      -0.03389520
H       10.16128000      14.97256000       2.63788000      -0.00514197       0.04310070       0.01862620
H        7.60408000      16.04896000       2.41169000       0.02159930       0.02241220       0.01873070
O       15.04980000       9.35226000      17.99540000       0.02129460       0.03347480      -0.01290450
H       16.80330000       8.72436000      17.74390000      -0.00753659      -0.00646389       0.00497876
H       15.23040000      11.12706000      17.32630000      -0.01415060      -0.02241700       0.00601125
O        6.88304000      11.33944000      10.15270000       0.07914260      -0.00391517      -0.02672720
H        8.39714000      12.10414000       9.02291000      -0.05730410      -0.02699810       0.04061520
H        7.75364000       9.69954000      10.86620000      -0.02127900       0.03541590      -0.01535550
O       23.89212000       3.10288000      16.78080000       0.04780830      -0.07014600       0.04299690
H        0.61698000       1.60746000      17.71590000      -0.03663900       0.06381260      -0.03219780
H       24.26542000       2.62450000      15.03700000      -0.00655827       0.01044220       0.00274629
O       24.06828000       7.16924000       8.64316000       0.05613830      -0.03572590       0.00101512
H        1.58684000       7.55744000       8.48416000      -0.01515490      -0.02449810      -0.01046340
H       23.60468000       8.80224000       8.92546000      -0.04036790       0.06272310       0.01238210
O       16.58030000      15.29080000       0.84276000       0.03141550       0.04052280       0.05187130
H       16.11010000      15.67900000       2.75136000      -0.00461905      -0.01577580      -0.05733520
H       15.54700000      14.22800000      24.20740000      -0.02464810      -0.02163130       0.00257523
O        3.82784000      22.70331000       6.66596000      -0.02456790      -0.05717140       0.02892420
H        5.41284000      21.93765000       7.30966000      -0.02341530       0.01052060      -0.01148740
H        2.35764000      21.41076000       7.10056000       0.04944600       0.04697400      -0.01601970
O       18.06506000      11.10420000      12.11206000       0.00686971      -0.08587140      -0.02119480
H       18.34806000       9.04068000      12.28836000      -0.01275890       0.08358030      -0.00469091
H       17.95376000      11.28930000      10.25296000       0.00080949      -0.00355337       0.01930630
O       18.75177000      17.94538000      17.71065000       0.02041370      -0.06845260      -0.02144610
H       19.87026000      17.17258000      18.97270000      -0.00251843       0.02284290       0.00673654
H       18.53710000      16.27838000      16.70922000      -0.01253300       0.04932320       0.01497400
O        8.68122000       6.96124000      11.98454000       0.05054190      -0.07585820      -0.00707228
H        9.82132000       6.85254000      13.47594000      -0.01873280       0.02462280       0.00251171
H        9.46502000       5.23564000      11.23074000      -0.03735980       0.05207330       0.00478985
O        8.74262000       0.37652600      15.50760000       0.03235470      -0.00393986       0.02559380
H        9.62413000       1.95328000      14.96730000      -0.01536090      -0.03249490       0.01431870
H        9.81364000      23.99621400      16.97220000      -0.02572500       0.02814080      -0.03959900
O       16.16378000      19.98352000      22.90316000      -0.02015360      -0.06338650      -0.06804830
H       15.29818000      19.79965000      21.00216000       0.03007140       0.01414400       0.06829000
H       16.63328000      18.04793000      23.21346000      -0.01737190       0.06081290       0.00697688
O       15.51320000      14.14744000      15.39449000      -0.08839330       0.00015604      -0.08729410
H       13.50780000      14.82744000      14.63889000       0.09009040      -0.03090470       0.04260120
H       15.94560000      13.06064000      13.78784000       0.00009200       0.02367630       0.04703170
O       19.62170000      17.65070000       8.56002000       0.04289740      -0.10948700      -0.11076000
H       19.27520000      18.50520000       9.90317000      -0.02830970       0.08022180       0.12334700
H       20.40690000      16.01920000       9.15305000      -0.00975640       0.02757730      -0.01260050
O       14.26580000      20.03390000      17.74924000       0.05289140       0.11158800       0.00960564
H       12.70060000      19.50210000      17.79066000      -0.10383100      -0.06253070       0.00295601
H       15.94230000      19.66190000      17.71687000       0.05048770      -0.04788510      -0.01002980
O       22.89960000      21.00306000       5.68256000      -0.03435210      -0.01953410       0.03757340
H       21.72890000      19.54316000       6.20696000       0.03072390       0.03659160      -0.01137440
H       23.87560000      20.45196000       4.28936000       0.00329140      -0.01535310      -0.02007640
O       15.32511000       9.10109000       2.08581000      -0.00762583      -0.00760106       0.01520810
H       15.73778000       9.69257000       0.32661300       0.01585920      -0.02662860       0.02045390
H       15.21258000       7.26421000       2.40695000      -0.00023850       0.02682400      -0.01907170
O       15.69560000       0.89054000      12.64370000      -0.00359056      -0.00182857       0.00125817
H       14.94190000       0.91514000      10.95970000       0.00399675      -0.00308762       0.01003910
H       14.36720000       0.67074000      13.89830000       0.00745848       0.00563120      -0.00722812
O       22.37507000      12.46020000      14.77636000       0.04809040      -0.00652587       0.04029350
H       23.34474600      10.87600000      14.73986000      -0.02031890       0.00923050       0.00704491
H       21.27102000      12.45390000      13.43676000      -0.03434740      -0.00492245      -0.04290240
O       21.33196000      16.17866000      22.03633000       0.02868290      -0.00060061      -0.01726350
H       22.43216000      17.12866000      23.14796000      -0.00431382       0.00483184       0.00690545
H       19.84626000      15.75166000      22.91227000      -0.02020130      -0.00393717       0.02230980
O        0.51576000       8.49051000      17.28068000       0.02827140       0.06360640      -0.00138380
H        2.19766000       9.03271000      16.56888000      -0.01839550      -0.02087600       0.01915830
H        0.02056000       6.89037000      16.79808000       0.00131917      -0.04699670      -0.01411060
O        9.41364000      21.89436000       7.80980000      -0.07737150      -0.01993430       0.03810010
H       11.04674000      22.03356000       7.47396000       0.10248600       0.01073640      -0.04300470
H        9.56954000      20.69136000       9.21008000      -0.01796110       0.00936969       0.00298911
O        8.58779000      19.94808000      12.42966000       0.00500031       0.00793681       0.04968340
H        9.02779000      18.23778000      13.08216000      -0.00721503       0.02546640      -0.00398293
H        8.60984000      21.21468000      13.95596000       0.00212958      -0.03489500      -0.04935070
O       21.07225000       5.85386000       4.73500000      -0.00828768      -0.01369600       0.05683550
H       21.83930000       6.19196000       6.47451000      -0.00794156      -0.00119214      -0.04810820
H       22.14640000       6.51126000       3.46570000       0.01221750       0.01158620      -0.01318750
O       15.28670000      16.47105000       5.81467000       0.05377320       0.01565650      -0.01186330
H       14.07364000      15.89148000       6.96626000      -0.02671970      -0.00958778       0.01713350
H       16.81330000      16.95790000       6.81792000      -0.01926440      -0.00327982      -0.01159100
O       19.36729000       7.09151000      17.85260000       0.00206952       0.00277873       0.02455640
H       20.97338000       7.43862000      18.81270000      -0.03323000      -0.01082640      -0.04353140
H       19.13650000       6.43220000      16.00930000       0.03886060       0.00067673       0.02736110
O       23.42360000       7.39004000       0.22466200      -0.07001850      -0.01236470      -0.06899390
H       22.69100000       5.80044000      23.53479000       0.03170570       0.03739880       0.03517800
H       22.56920000       8.88214000      23.37450400       0.03778700      -0.03791110       0.04100890
O       22.22760000       2.62437000      22.32386000      -0.05820780      -0.02018270       0.12164900
H       20.39630000       1.99281000      23.08516000       0.06454610       0.01826960      -0.03024570
H       22.11190000       2.65099000      20.64246000      -0.01076980       0.00113096      -0.09067710
O       17.59260000       0.79156000       0.49632000       0.01341960       0.06237840      -0.00559574
H       18.60920000       0.72056000       2.05472000       0.00113083      -0.00451301       0.00472857
H       17.00860000      23.52840000       0.13202000      -0.01529390      -0.06170110      -0.01426170
O        7.16884000      10.61910000      21.67980000      -0.05646660       0.07604740       0.01233710
H        8.08184000       9.20148000      21.64600000       0.04899440      -0.07700850      -0.00405018
H        5.73444000      10.26870000      22.81580000       0.01126470       0.00008637      -0.00919118
