192
Lattice="24.0844 0.0 0.0 0.0 24.0844 0.0 0.0 0.0 24.0844" Properties=species:S:1:pos:R:3:force:R:3 TotEnergy=-1103.44178 cutoff=-1.0 nneightol=1.2 pbc="T T T"
O       23.75390000      21.49767000      21.24930000      -0.03121850      -0.08571900      -0.03354130
H       22.20050000      21.41961000      20.00720000       0.04336530       0.00503768       0.03213090
H        0.42800000      19.52605000      21.27610000      -0.02167920       0.07227800       0.00695023
O       22.95030000      22.01860000       2.47363000      -0.04417710      -0.01238000      -0.08126710
H        0.47150000      22.57010000       2.94436000       0.03585820       0.00998880       0.00667867
H       22.93160000      21.76880000       0.40224300       0.00873549       0.00599445       0.07327410
O        9.15891000       2.49396000       9.95343000      -0.00092304       0.06731130      -0.01380410
H        9.46508000       4.38240000      10.55730000       0.00374414      -0.05632060      -0.00567322
H        9.36159000       1.20256000      11.17350000       0.00203053      -0.01105560       0.02757840
O       20.04107000      14.12190000      23.83071300       0.06020750      -0.02178740      -0.06159290
H       21.22385000      14.26700000      22.08714000      -0.05414710      -0.00980433       0.05375950
H       18.99397000      15.57141000       0.01939400       0.00010865       0.02102540       0.00075456
O        6.99960000       7.02900000      18.43530000      -0.00008246       0.00984834      -0.02593920
H        7.34138000       7.95770000      20.04620000       0.01245700       0.00411468      -0.04093250
H        7.56161000       8.01410000      16.84270000      -0.01258600      -0.02092260       0.05803990
O       18.37943000      12.92820000       8.62369000       0.06910980       0.00557670      -0.04234980
H       18.24367000      11.09450000       8.71487000      -0.00218672       0.00349252      -0.00675971
H       20.04299000      13.23400000       7.32098000      -0.07535120      -0.01489880       0.04562060
O       20.15200000       1.15550000      13.81190000       0.05788740       0.03168710       0.02671080
H       21.99780000       1.61050000      13.47340000      -0.02548860      -0.00836479       0.01841020
H       19.61740000       0.59490000      12.24560000      -0.02615230      -0.02643350      -0.04193350
O        0.79007800      16.74640000      11.40860000      -0.04097390      -0.05172190      -0.03093350
H        0.85514900      14.66410000      11.22460000       0.00564539       0.05237100       0.01013550
H       23.29874500      17.15500000      10.37910000       0.03797480       0.00132151       0.01820660
O        6.88700000      15.11230000      21.89640000      -0.03532040       0.04956960       0.00473149
H        7.91510000      16.56830000      22.27920000       0.00749815      -0.01146980      -0.01152080
H        7.78030000      13.59420000      21.92330000       0.02542310      -0.03318700      -0.00110324
O       10.28040000      19.67350000      21.80050000      -0.00373921      -0.00715093      -0.02692700
H       12.01150000      20.22410000      21.62610000       0.01423800      -0.00788851      -0.00237731
H        9.83426000      20.07240000      23.46190000      -0.01474930       0.01513690       0.02520790
O       13.88900000       1.33827000       7.50928000      -0.02073720       0.01912820       0.04750320
H       12.50480000       2.10005000       8.76830000       0.03873080      -0.02123730      -0.06362660
H       13.94370000       2.03627000       5.78707000      -0.02094070       0.00218933       0.01959440
O       12.38750000       3.10910000       2.76530000       0.02855540      -0.01922810      -0.04820820
H       10.61510000       2.94920000       2.34800000       0.00242009      -0.00124785       0.00125268
H       13.35590000       2.41340000       1.16340000      -0.03245920       0.02353060       0.04095350
O       13.66670000      18.60930000      12.41990000       0.08065560       0.10385300       0.10591900
H       13.17600000      17.47800000      11.40580000      -0.03483030      -0.13617400      -0.11983500
H       12.23060000      19.55810000      12.56750000      -0.04816970       0.04665100       0.01387490
O        1.40780000      11.72350000      11.45520000       0.04469000      -0.03034040       0.01194990
H        1.99280000      10.46520000      10.04990000      -0.01028740       0.02376170       0.03476890
H        2.81700000      11.53130000      12.89130000      -0.03418790       0.00791069      -0.03898740
O       22.64751000       3.47841000       1.35980000      -0.04088790      -0.02237350       0.02938270
H       22.18965000       1.73210000       1.90052000      -0.00008894       0.02172630       0.00347742
H       23.98150600       3.03276000       0.30248600       0.03683610       0.00243477      -0.02960500
O       21.60660000      19.68060000       7.70750000       0.01847130      -0.02964790       0.00274671
H       22.11170000      20.55120000       6.25950000       0.02568760      -0.00342292      -0.04153000
H       20.59400000      20.99800000       8.22240000      -0.04530090       0.02667850       0.04012700
O       15.51220000      11.55090000       1.11100000      -0.04051380      -0.02533280       0.01471270
H       14.66540000      10.75300000      23.68750000       0.02281660       0.01604620       0.00477687
H       16.96430000      12.53430000       0.80950000       0.02615720       0.00325811      -0.02524690
O        7.14700000      16.40050000       3.12950000      -0.06719040       0.01878950       0.12815500
H        5.49910000      15.59100000       4.12830000       0.06463490       0.03852410      -0.04508050
H        7.22780000      15.47420000       1.74020000      -0.00054093      -0.06157790      -0.08529910
O       19.90870000      21.63240000      17.18930000      -0.04062310      -0.03258400      -0.01517420
H       20.07770000      23.08280000      16.01670000      -0.00138138      -0.00717481       0.00046395
H       18.29350000      20.69420000      16.63050000       0.03996570       0.02662420       0.02182740
O        6.76250000       3.03500000       1.81420000      -0.06284330      -0.02223650      -0.00796268
H        5.34450000       2.19490000       2.87554000       0.03642090       0.02358530      -0.01877190
H        5.92180000       2.91080000       0.10319300       0.02682260       0.00073503       0.03059180
O        6.19110000      18.16860000      10.67580000       0.00727536       0.00723078      -0.00074321
H        6.84750000      16.46640000      10.62620000       0.01813160      -0.00559255       0.00044135
H        4.45470000      17.83020000      10.87920000      -0.03040200       0.00425187       0.00005481
O       11.10260000       7.38555000      10.71040000       0.01637060      -0.01860380      -0.01039450
H        9.82520000       8.15613000       9.49120000       0.03626050      -0.00662823       0.00298779
H       12.84580000       6.95286000      10.00480000      -0.04563910       0.01935460       0.00803310
O        6.99275000       2.03240000      20.25058000       0.01219370      -0.06539070      -0.02968910
H        7.60640000       0.46160300      19.14152000      -0.01853290       0.05129900       0.03360780
H        7.38793000       3.53676000      19.33836000       0.00382956       0.01053130      -0.00931587
O       18.51230000       5.30230000      22.61350000       0.03919100       0.02069280       0.09899570
H       17.94230000       6.39951000       0.06430000      -0.00522592      -0.02569330      -0.04665490
H       20.01850000       4.69047000      23.83350000      -0.02499280       0.00172971      -0.04882870
O       21.57578000      12.43370000       4.54600000       0.07061510      -0.01096160       0.01881250
H       21.00599000      12.67540000       2.85870000      -0.01071680       0.01162990      -0.02200680
H       23.48477800      12.79930000       4.38900000      -0.05081630       0.00973303       0.00492147
O        8.93611000      13.89130000      10.48910000       0.03106870       0.02139330      -0.02100950
H        8.35979000      12.72550000       9.19639000       0.00604043      -0.00128264       0.00262793
H       10.63520000      14.60260000       9.75206000      -0.03323750      -0.02228210       0.01490790
O        7.66400000      21.35690000      17.75010000      -0.05537020      -0.00138687       0.01434750
H        5.73150000      21.01450000      17.64430000       0.05504880       0.00860040       0.01469750
H        8.38590000      20.80910000      19.43370000      -0.00531079      -0.00418814      -0.01714190
O        7.78980000       8.45580000       2.35280000       0.02637000      -0.06332220       0.01882380
H        7.10470000       6.68720000       2.50050000       0.01850950       0.02102060      -0.00661230
H        6.32330000       9.36390000       2.01860000      -0.03981170       0.03242540      -0.01266900
O       13.78080000       9.63340000      20.75610000       0.00618375       0.00466451       0.01886960
H       14.70080000      10.51260000      19.48170000       0.00660718       0.03375850      -0.01658960
H       14.07890000       8.03030000      19.96660000      -0.01112190      -0.03987600      -0.00233186
O        2.07551000       1.57560000      21.96090000       0.04649380      -0.03657880      -0.03997270
H        1.07825000      24.03880000      21.85690000       0.01294000       0.01833190      -0.00367505
H        3.77175000       1.04700000      20.94650000      -0.04566620       0.02439510       0.04304480
O        1.50141000      16.26720000       4.36014000       0.01145270      -0.04154140      -0.00598022
H        1.44382000      17.13120000       2.67554000       0.00110371       0.00995071       0.04691040
H        1.43632000      16.62880000       6.17479000      -0.00579373       0.02835160      -0.03739780
O        1.33105000       1.63384000      14.04400000       0.03058680      -0.02205220       0.05935040
H        1.82394000      23.87591200      14.95510000      -0.02246310       0.06242660      -0.03464550
H        1.84435000       2.99650000      15.41050000      -0.02066990      -0.03334850      -0.03325260
O       13.99600000       5.31310000      17.87670000       0.01498090      -0.04010670       0.02220540
H       15.40110000       5.24470000      16.61880000      -0.01603470       0.00329915       0.01044750
H       14.19700000       3.73000000      18.98940000      -0.00338829       0.04405790      -0.02422120
O        3.42667000      24.01790000       4.88080000      -0.09191030       0.07385890       0.03285570
H        3.55437000       0.39690000       6.65830000       0.00445297      -0.00070068      -0.00760219
H        4.66581000      23.06310000       4.33030000       0.08251200      -0.07265240      -0.02373620
O       13.32710000      15.31900000       3.09820000       0.08034960      -0.04140780       0.01539060
H       14.12390000      13.56840000       2.27626000      -0.03839870       0.03391870       0.00846144
H       11.78330000      16.02800000       2.85901000      -0.06037240       0.00680317      -0.01970920
O       20.29740000      10.97070000      13.44630000       0.06271530      -0.04679350       0.02926800
H       22.12950000      10.63940000      12.95260000      -0.03120100      -0.00012885       0.02450200
H       20.03950000      11.97000000      12.07740000      -0.03267190       0.04818080      -0.05469380
O        8.14820000       9.54840000       7.41389000       0.01393910       0.01449270       0.02757100
H        8.25930000       8.97830000       5.73950000       0.01617880      -0.00490574      -0.04445040
H        6.46050000       9.10900000       7.71340000      -0.03866890      -0.00366217       0.01411990
O        1.73460000       4.91022000      18.10050000       0.03207750      -0.00651601       0.00600462
H        1.94960000       3.37699000      19.20190000      -0.01276340       0.02365910      -0.00077605
H        3.45190000       5.67044000      18.14090000      -0.01688470      -0.01130250      -0.00502065
O        3.01010000       8.11030000       8.20880000      -0.07921160       0.20637600      -0.09073490
H        3.48830000       6.68820000       8.71200000       0.04572770      -0.19314800       0.05707950
H        1.79380000       8.15230000       6.69110000       0.03501260      -0.02167960       0.02894340
O       13.59210000      15.27200000       8.52510000      -0.03892530       0.01148620      -0.02224480
H       14.87900000      14.04360000       8.59150000       0.02657110      -0.01408900       0.00414297
H       13.08300000      15.25570000       6.72330000       0.01150040       0.00474931       0.01278040
O        2.34320000      21.09335000      15.99040000      -0.00703727      -0.05471340       0.02368820
H        1.50060000      19.37334000      16.47270000      -0.01087770       0.04696930       0.00257640
H        3.42240000      20.24774000      14.85200000       0.02101580       0.00513704      -0.02915840
O       17.11420000       7.49654000       9.06110000      -0.02941060       0.00645576      -0.08650220
H       17.27870000       6.27916000       7.55710000       0.00500444       0.02695060       0.05748090
H       17.77600000       7.34354000      10.67470000       0.01896890      -0.03274080       0.02667430
O       15.66728000      12.06330000      16.68144000       0.04828920       0.01562300       0.10774900
H       17.22177000      11.73660000      15.97929000       0.04244840      -0.01144430      -0.02561160
H       14.44579000      12.10010000      15.55506000      -0.08782200      -0.00755241      -0.08225050
O        3.92540000       2.99710000       9.66320000      -0.00647423      -0.01240820       0.03872690
H        5.86230000       2.70690000       9.89800000      -0.05035050       0.00346304       0.00631652
H        2.68510000       2.60570000      11.31930000       0.05920340       0.00354038      -0.04779490
O       17.62350000      22.66070000       9.97932000      -0.03144910       0.05646700      -0.00929186
H       16.55670000       0.19249600       9.40307000       0.02464800      -0.05364410       0.00378677
H       16.30000000      21.58346000      10.62950000       0.00484904      -0.00300752      -0.00274990
O       15.29070000      20.03444000      21.33160000      -0.03564100       0.04390030      -0.04949980
H       15.38150000      19.00326000      19.81970000      -0.00081064      -0.00053454      -0.00928249
H       16.16940000      19.17576000      22.52140000       0.03478350      -0.03255990       0.05557600
O        5.28617000      11.50100000      15.04224000      -0.09579120      -0.04803130       0.05051080
H        4.93729000      11.46800000      16.96902000      -0.00182581      -0.00240455      -0.04082880
H        6.75603000      12.26540000      14.87609000       0.09285650       0.04859920      -0.01555540
O       22.76090000      17.31330000      16.19860000      -0.02177950       0.05072570      -0.04216740
H       21.34100000      18.83030000      16.32080000       0.05128110      -0.04623740      -0.00078900
H       23.37120000      17.37610000      14.31180000      -0.01569890      -0.00924409       0.04247510
O        9.04735000      22.10580000      12.95650000      -0.02205860       0.01876740       0.07363120
H        8.17870000      22.07640000      14.82883000       0.04993550       0.00678657      -0.05069100
H        7.90075000      20.91550000      12.32130000      -0.01461710      -0.02504740      -0.03031120
O        0.18300000       8.01170000       3.77670000       0.04726980       0.17921200       0.05966040
H       22.99060000       9.35770000       4.56130000       0.02935040      -0.03680090      -0.03079280
H       23.36990000       6.69040000       3.53620000      -0.08409510      -0.13829800      -0.02974230
O       16.43466000       6.57810000       3.52045000       0.00355478      -0.01261790      -0.00056296
H       16.16167000       8.25382000       3.08838000       0.04823540       0.07840950      -0.00016538
H       14.70170000       6.67944000       3.09698000      -0.04698310      -0.06328780       0.00376470
O       15.65720000      17.56220000      16.93520000      -0.01801610       0.00559785      -0.03999570
H       14.78150000      18.18240000      15.28870000       0.01867950      -0.01766380       0.03435270
H       15.54300000      15.72340000      16.75820000       0.00568311       0.01011640       0.00712507
O        1.85355000      17.06260000      23.06470000      -0.12248200       0.00983562       0.02972400
H        3.29883000      16.29510000      22.62110000       0.07733510      -0.04629970      -0.02363590
H        0.47139400      15.70760000      23.18840000       0.04377180       0.03312670      -0.00718882
O       17.24100000      17.72310000       1.44135000      -0.02625740      -0.00151209       0.00050273
H       17.86900000      19.02130000       2.47585000       0.01743780       0.01529870       0.01193510
H       15.55440000      17.34540000       2.22636000       0.01163310      -0.01200580      -0.00760996
O       22.58750000      13.07580000      19.27070000      -0.01653880      -0.02422260      -0.04150790
H       21.60460000      11.31240000      19.12880000       0.02195830       0.05350480      -0.01222650
H       22.64710000      14.09080000      17.52270000      -0.01307710      -0.02575460       0.05502640
O        6.76520000      21.25070000       1.21598000      -0.05552200       0.02218940      -0.11009100
H        6.85990000      19.68190000       1.82664000      -0.00050623      -0.08606960       0.04286020
H        7.55290000      22.23930000       2.29188000       0.05465940       0.06261900       0.06869030
O        8.26583000      21.11780000       6.25830000       0.00408117       0.02373100      -0.00824929
H        7.65161000      19.98800000       7.48180000      -0.01008260      -0.02203320       0.01530260
H        8.04616000      22.71640000       7.08910000       0.00850446       0.00247906      -0.00053312
O        3.75659000      10.83200000       0.67405400      -0.06106010      -0.02141680       0.04315010
H        2.04583000      10.05470000       1.51695000       0.06693120       0.02043280      -0.04207520
H        3.82780000      10.58150000      22.94883000      -0.01366280       0.00511236       0.00178242
O       11.19420000      11.26390000      14.31160000      -0.01088420      -0.01358980      -0.00451508
H       11.24110000       9.50210000      13.58660000      -0.00352554       0.03756890       0.00134155
H       10.17000000      12.38030000      13.19670000       0.01838140      -0.02390920       0.00227773
O       17.44513000       5.42629000      14.17600000       0.03233340      -0.00568631       0.00477840
H       18.79758000       6.63864000      14.55180000      -0.01483170      -0.00626088       0.00281873
H       18.35951000       3.77364000      14.37790000      -0.01064780       0.01898740      -0.00878281
O        3.19890000      10.61620000      19.49890000      -0.02430620      -0.02228050      -0.00185840
H        1.35640000      11.10020000      19.00904000       0.04250280      -0.01334880       0.02015060
H        3.55200000       8.74600000      19.67417000      -0.02046370       0.04350990      -0.01473580
O       20.84740000       8.03970000      18.43910000       0.01186470       0.01324580       0.02279390
H       19.94320000       7.66114000      20.03640000       0.01306100      -0.00922671      -0.01749800
H       22.65610000       7.69297000      18.71040000      -0.02341790      -0.01011490      -0.00130936
O       14.82190000       1.99430000      22.16520000       0.01197940       0.10662400       0.03629040
H       16.51720000       2.73430000      22.69880000      -0.02516770      -0.01940910      -0.02154790
H       14.65060000       0.37340000      21.75770000       0.01164620      -0.09239280      -0.01764140
O        9.01310000      10.48590000      21.55130000       0.04454130      -0.00881559      -0.00226258
H       10.98830000      10.36970000      21.17330000      -0.04646810       0.00114135      -0.00202211
H        8.89550000       9.20623000      22.84440000      -0.00219408       0.00804268       0.01495000
