192
Lattice="24.47592 0.0 0.0 0.0 24.47592 0.0 0.0 0.0 24.47592" Properties=species:S:1:pos:R:3:force:R:3 TotEnergy=-1103.36434 cutoff=-1.0 nneightol=1.2 pbc="T T T"
O       20.49170000       2.56397000      17.00064000       0.07197220       0.05223940       0.02181920
H       21.49240000       3.34215000      18.51384000      -0.04329560      -0.03922400      -0.04001800
H       18.98630000       1.72218000      17.39344000      -0.02887710      -0.01245830       0.02020500
O       22.79168000      19.33698000      11.68480000       0.06439530      -0.03470970       0.01273900
H        0.10316000      18.26898000      11.73200000      -0.07521420       0.04246490      -0.01301220
H       22.47078000      20.07458000      10.04310000       0.01090350      -0.00527783      -0.00229540
O        8.83938000       1.25856000      16.13890000      -0.05257500       0.09256120       0.10989500
H        9.47712000       0.25296500      15.02960000       0.05367330      -0.08938030      -0.09989460
H        7.02525000       1.27648000      16.03790000       0.00286874      -0.00345690      -0.00888507
O       18.94171000      14.68419000      24.45235400       0.06350990      -0.01437020       0.06491120
H       19.60747000      16.39725000      24.18329200      -0.01774230      -0.00268396      -0.00864754
H       20.26483000      14.02912000       1.49070000      -0.04456080       0.01032090      -0.05022590
O        6.72098000       7.74508000      20.27490000       0.03413140       0.01212840      -0.02568630
H        7.48000000       9.01218000      19.01430000      -0.02527170      -0.03028660       0.03430980
H        7.99548000       6.28868000      20.37850000      -0.01885250       0.02684060      -0.00379142
O       23.07699000      13.40040000       8.34958000      -0.01673720       0.00173934       0.05058090
H       23.05803000      13.16880000       6.63483000      -0.00286568      -0.01360490      -0.05775900
H        0.02928000      14.43710000       8.73961000       0.01188380       0.00484527       0.00511443
O       12.55988000      22.90800000      12.81310000       0.02184540      -0.02123580      -0.09763470
H       13.20588000      22.75030000      10.82090000      -0.02371150       0.01554180       0.08483480
H       11.83908000      21.19670000      12.90630000       0.00037384       0.01229250       0.01283570
O       24.16210400       0.20802000      12.96720000       0.02883900       0.01231020      -0.01331820
H       23.54894300      23.04454000      12.99860000       0.00957326      -0.06154930      -0.00653836
H       22.64237000       0.88122000      13.43620000      -0.04659400       0.04950760       0.02370060
O        7.85918000      12.41784000      17.43870000      -0.00931451      -0.00844544      -0.00506980
H        9.64458000      12.50234000      17.82120000       0.00248795       0.01119850       0.00189340
H        7.12838000      14.06404000      17.72020000       0.00905395      -0.00065038       0.00453919
O        6.42736000      21.21894000      22.91874000       0.06271320      -0.06771710       0.01274450
H        8.27542000      20.22124000      22.79934000      -0.04734140       0.04171750      -0.00025854
H        5.74791000      20.05194000      24.22314000      -0.01004940       0.02412000      -0.01289550
O       13.06102000       2.99049000       4.49731000      -0.05081470      -0.00187174       0.00339696
H       11.13172000       2.98082000       4.25716000       0.04287680      -0.00478062       0.01666480
H       13.65082000       3.30813000       2.83140000       0.01038470       0.00030543      -0.01476860
O       14.04102000      11.95698000      23.92468000      -0.09172270       0.07432970       0.03942620
H       14.80080000      10.45168000      23.81758000       0.02700090      -0.07881160       0.00002984
H       12.21062000      11.86408000       0.56466000       0.06217340      -0.00378957      -0.02601760
O       14.56300000      19.10944000       7.20382000      -0.02657150       0.02754630      -0.00236398
H       16.15480000      18.30524000       7.48432000      -0.00666732      -0.02656520      -0.00762769
H       13.24830000      18.15014000       6.32972000       0.02270100       0.00191631       0.00625226
O        2.59308000      15.29440000      10.48498000       0.01971440       0.04722530      -0.01446800
H        4.06018000      16.46830000      10.20118000      -0.01841150      -0.01258260       0.00254081
H        3.33848000      14.08750000      11.57468000       0.00498901      -0.01941300       0.02041970
O       23.67774700       2.40821000      22.72279000       0.01233930      -0.01978750       0.03339380
H        0.94149700       3.14614000      22.65109000      -0.02820310      -0.02182260       0.00037360
H       23.48602700       1.08902000      24.13097400       0.01394120       0.03147310      -0.03586800
O       21.70814000      22.91070000       7.41258000      -0.07568430       0.01019140       0.04072550
H       22.06514000      22.38100000       5.77108000       0.01332560      -0.00823909      -0.04256780
H       19.69914000      23.05510000       7.40328000       0.05611950      -0.00110608       0.00356028
O       18.85064000      10.54860000      21.50320000       0.00538789       0.01818760       0.03098040
H       17.32444000      10.02680000      20.64590000      -0.00238990       0.00193575      -0.00400297
H       18.51814000      11.99390000      22.80670000       0.00933099      -0.02442960      -0.03806930
O        9.94022000      11.93106000       2.54382000       0.01284720      -0.01837380       0.03465060
H       10.28342000      11.27166000       4.36642000      -0.01302620       0.01849340      -0.05381510
H        8.70192000      10.79316000       1.71192000       0.00427090       0.00448377       0.02219880
O       16.29386000      23.86470000      16.53768000      -0.02563840       0.02731740      -0.03600960
H       15.00926000      24.36540000      15.11908000       0.04035600      -0.02886490       0.03791520
H       17.58056000      22.71740000      15.86798000      -0.01951310      -0.00154290      -0.00139653
O        7.93046000       2.18472000       5.63811000      -0.03731210       0.03225300      -0.00219924
H        7.30726000       3.31182000       7.01456000       0.02357480      -0.02444880      -0.00511644
H        6.74376000       2.86362000       4.31772000       0.01850620      -0.01267690       0.00215728
O        7.43248000      17.66820000      10.00582000       0.03718120      -0.06070070       0.04342800
H        7.73948000      16.05210000       9.00872000       0.00143387       0.03196520       0.01677360
H        8.57738000      17.21520000      11.74242000      -0.03546210       0.02970860      -0.06331640
O       16.08656000       8.43154000      12.75306000       0.08622430       0.02906120       0.06057250
H       15.25863000       7.26126000      11.83996000      -0.04081050      -0.06025260      -0.04372160
H       17.87754000       7.60309000      13.15786000      -0.04408410       0.02722730      -0.02275430
O        5.01046000       1.53897000      22.60964000       0.09992510      -0.03184370      -0.00842782
H        5.93846000      24.02402000      22.87025000      -0.04029950       0.06101550      -0.00365331
H        6.72142000       2.52600000      22.23390000      -0.05689680      -0.03000610       0.00757735
O       19.76438000       5.42006000      23.55960000       0.02905120       0.04464560      -0.02166970
H       20.04008000       7.23859000      22.82940000      -0.01324250      -0.05167490       0.02004400
H       21.44098000       4.47625000      23.36320000      -0.02694720       0.01285490       0.00102900
O       22.37121000      12.09026000       2.88778000       0.03205210       0.02448280      -0.00720865
H       21.60545000      10.45556000       3.19808000       0.01333560      -0.00939099      -0.00123312
H       24.29488800      12.24576000       2.23618000      -0.05351400      -0.01102160       0.01737730
O        9.52189000      12.91578000       8.23576000      -0.13352300      -0.05689190      -0.00417053
H        8.20314000      11.85208000       9.46897000       0.06271910       0.03751740      -0.05264750
H       10.91360000      13.28918000       9.12606000       0.07030870       0.01056980       0.05423410
O        6.83572000      18.08330000      18.20930000      -0.02322110      -0.03399350      -0.06865290
H        5.25772000      18.41990000      17.25000000       0.02578960      -0.00472929       0.00462668
H        6.41152000      18.97240000      19.61320000      -0.00533057       0.03666100       0.06106810
O        6.04138000       9.04888000       1.19416000       0.04674640       0.22599500      -0.05730440
H        6.05498000       9.12408000      23.85198000       0.00260030      -0.00335419      -0.00926283
H        5.66278000       7.56358000       1.52456000      -0.05219210      -0.21475400       0.05512910
O       14.95190000       8.78708000      18.36300000      -0.00115177      -0.00302970       0.00229688
H       15.33570000       8.55198000      16.59730000      -0.00034121      -0.00047044      -0.00428208
H       13.71050000      10.11938000      18.37410000       0.00024246       0.00298428      -0.00080322
O       22.91764000      21.95144000       2.00298000       0.06523970      -0.06197400      -0.01714280
H       21.79511000      20.67994000       1.31728000      -0.02648170       0.01407910      -0.00585053
H       24.46332300      20.66504000       1.48048000      -0.03912180       0.05484740       0.02608710
O        2.43252000      13.14380000       1.35364000       0.01560180      -0.02334730       0.04220440
H        3.35058000      11.54760000       1.75202000       0.00033037       0.02033290      -0.00989127
H        2.17793000      13.21450000      24.07671900      -0.00696248       0.00063179      -0.03471650
O        3.89539000       2.67883000      14.40620000      -0.02776700      -0.09813260      -0.15453100
H        2.07691000       1.93215000      13.71700000       0.06848200       0.02150800       0.02098850
H        3.54933000       3.41581000      15.80330000      -0.03665310       0.08017370       0.13759100
O        9.88764000       3.98666000      20.77874000      -0.02252590      -0.06172640      -0.04413330
H        9.97924000       2.43916000      19.54634000      -0.00652561       0.05030200       0.02448430
H       11.53164000       4.12916000      21.41194000       0.03202200       0.00554263       0.01729030
O        2.89095000      23.87238000       8.75892000      -0.02906150       0.00526094       0.02757040
H        3.69101000      24.04228000       7.17002000      -0.00316226      -0.01001040      -0.01654700
H        1.02001000      23.73238000       8.76962000       0.03462430       0.00216167      -0.01494440
O       16.10304000      11.07918000       4.96242000      -0.12622400       0.16910800       0.01773330
H       16.10724000      11.58738000       3.24184000      -0.01491040       0.02437740      -0.01483470
H       17.05044000       9.85648000       4.76743000       0.14266600      -0.19087900      -0.00252180
O       23.85160000      10.01068000      12.63160000      -0.13134200      -0.03674100      -0.09756730
H        0.60918000      10.42138000      13.59590000       0.12311300       0.05097570       0.07562480
H       23.46250000      11.13018000      11.16710000       0.01215920      -0.00957405       0.02048270
O       13.49142000       4.35732000      10.06580000      -0.00103032      -0.01448780      -0.01892880
H       12.77062000       4.33392000       8.33215000       0.01651000      -0.00152109       0.02299190
H       14.47999000       2.79482000      10.18670000      -0.01244040       0.01682640      -0.00523213
O        2.05824000       5.23681000      19.22680000      -0.03808580       0.07233950      -0.01392240
H        0.54254000       6.56788000      18.63300000       0.07586200      -0.04962880       0.02828970
H        3.51684000       6.34304000      19.86000000      -0.02961500      -0.01810200      -0.02066080
O        5.58902000       8.68532000       9.46478000      -0.02039990       0.02067040      -0.02546740
H        5.78792000       6.93962000       9.91078000       0.00899928      -0.00582725      -0.00333601
H        4.52542000       8.76732000       7.94048000       0.01371570      -0.00807756       0.02148900
O       17.70440000      15.14590000       7.79298000      -0.01512430      -0.00771079      -0.00596551
H       19.46170000      15.28750000       8.07168000       0.01878400      -0.00750888       0.00465231
H       17.41260000      13.65110000       6.71638000       0.00411348       0.01062750       0.00397184
O        3.05902000      21.92626000      17.35278000      -0.03541080      -0.00997577      -0.09224350
H        3.28692000      22.91097000      18.68258000       0.02718710       0.04786760       0.10351800
H        2.52122000      23.40376000      16.30408000       0.00726990      -0.03443740      -0.00662218
O       21.69798000       3.84034000       8.01628000       0.00464492      -0.05886960       0.07620070
H       21.58278000       4.24884000       9.90228000      -0.00195803       0.01461530      -0.04154280
H       21.77928000       1.86423000       8.39598000      -0.00109497       0.05330260      -0.03732790
O       14.96832000      15.98984000      15.61198000       0.03267920       0.01339730      -0.00215803
H       16.47723000      17.12414000      15.64783000      -0.01893760      -0.00773486       0.00036330
H       15.40592000      14.77964000      14.28462000      -0.01449110       0.00097050       0.00300189
O        7.86886000       4.23082000      10.63052000      -0.14187000      -0.01463950       0.00013023
H        9.31646000       4.17952000      11.44912000       0.10114100      -0.00169626       0.04703260
H        6.56726000       3.72962000      12.03552000       0.03318710       0.00831652      -0.04106880
O       16.20520000      23.84073200       7.89635000       0.02519970       0.05181480       0.00938406
H       15.45060000       0.16790200       6.47198000       0.00130776       0.04612510      -0.00985431
H       15.49750000      22.39458000       7.30588000      -0.02467280      -0.09603900      -0.00019983
O       11.04174000      18.61969000      23.24598000      -0.00043687       0.14730000      -0.16259300
H       11.09214000      17.17191000      22.46598000       0.00846698      -0.11278100      -0.06025000
H       10.94724000      18.44201000       0.32896000      -0.00535063      -0.03029270       0.21475200
O        4.36261000      11.47692000      13.55392000      -0.00073825       0.10530700       0.15407400
H        5.76463000      11.32652000      14.81398000      -0.01662040      -0.00283833      -0.02867290
H        4.38695000      10.55312000      12.22652000       0.02276610      -0.10243700      -0.12194500
O       18.88360000      19.40110000      15.37150000      -0.06258040      -0.00212032       0.17141500
H       19.76990000      19.39700000      14.04430000       0.09501050      -0.00373670      -0.16270000
H       20.28290000      19.15860000      16.63550000      -0.02284530       0.00412383      -0.00778974
O       10.45790000      18.23420000      14.27372000      -0.02155140       0.01872380      -0.05343450
H       12.03990000      17.70460000      14.82089000       0.04001360      -0.02538800       0.01715840
H        9.26461000      18.11190000      15.55258000      -0.01899460       0.00094113       0.03663190
O        2.17258000       4.60186000       6.22568000      -0.07146340      -0.02201980       0.05094440
H        0.23708000       4.74556000       6.86208000       0.05505630       0.00251959      -0.02654390
H        2.40158000       3.06036000       7.28288000       0.01281910       0.01813510      -0.01445020
O       20.15435000       7.31630000       4.07631000       0.02312370       0.00340481       0.06163300
H       20.83436000       6.12238000       5.52018000      -0.03254560       0.02487010      -0.05941910
H       19.54130000       6.68217000       2.50278000       0.00705748      -0.02955950      -0.00472421
O       15.69350000      22.60924000      21.36810000      -0.08079130      -0.07420450       0.10441400
H       13.85930000      21.38974000      22.03630000       0.08513110       0.05360920      -0.03310220
H       15.32180000      23.05384000      19.73840000      -0.00831752       0.01072560      -0.06620460
O       19.88872000      19.52870000      22.99248000       0.01165690      -0.00242734      -0.00857885
H       21.11765000      19.48920000      21.51768000      -0.03251550       0.01327360       0.01790190
H       18.35122000      20.55190000      22.71778000       0.02165050      -0.00771332      -0.01236930
O       10.31258000      17.51798000       3.69972000       0.08949240       0.03093760       0.00108658
H        8.74048000      18.11398000       3.70256000      -0.08656540       0.04417170       0.01222090
H       10.10638000      15.83198000       3.54450000      -0.00237027      -0.07919140      -0.00574707
O       23.00210000      19.23790000      18.83094000       0.05880090      -0.05698630       0.03680600
H       23.90910000      17.47090000      19.69944000      -0.03866270       0.06583900      -0.03438240
H       24.45290000      20.44380000      18.58534000      -0.02127410      -0.02169050       0.00013249
O        2.60712000      18.48308000       1.73727000       0.00986093       0.03759090       0.01928880
H        2.55072000      16.71088000       2.02017000      -0.00000955      -0.01706320       0.00469677
H        3.04522000      19.32168000       3.35954000      -0.00122024      -0.01688810      -0.02116860
O        6.68968000      20.91034000       5.82548000       0.03975090       0.05893860      -0.03477330
H        6.99670000      19.99334000       7.35608000       0.01002580       0.00422843       0.01369310
H        8.02573000      22.44024000       5.60878000      -0.05445410      -0.05910640       0.01887250
O        4.82648000       4.47858000       2.14498000      -0.01588790      -0.01750010      -0.01256060
H        4.69068000       3.49168000       0.51233200       0.00054371       0.00135322       0.02411210
H        3.28756000       4.19168000       3.17497000       0.01381430       0.00690142      -0.00751873
O       14.09962000      12.91922000      11.50810000       0.00691053      -0.00247626      -0.01621480
H       14.81399000      11.24862000      11.38080000      -0.00642810      -0.01970140       0.02499660
H       15.15240000      13.46952000      10.14400000       0.00341494       0.03045820      -0.00823919
O       20.72362000       6.31083000      13.30920000       0.00416612       0.00018390       0.00773578
H       22.23929000       7.45784000      13.44260000      -0.02426220      -0.01014090      -0.00343725
H       20.29161000       5.42096000      14.87800000       0.01599700      -0.00203855      -0.00865835
O       24.02490000      14.23392000      21.52524000       0.05426430      -0.02598050      -0.08285800
H       23.95950000      12.83902000      19.96816000      -0.00992972       0.04120100       0.06565840
H       22.64500000      14.19182000      22.59868000      -0.04253300      -0.01251050       0.01439700
O       23.59710000      10.04060000      18.44618000       0.01792670      -0.00765560       0.01974130
H       22.02330000       9.53038000      19.10008000      -0.02407680      -0.00910677       0.04928580
H       22.78010000      10.35090000      16.94658000      -0.00107100       0.02198820      -0.06983370
O       14.74920000       2.91008000      23.60678000      -0.07485950       0.03237780       0.03011110
H       16.30070000       3.63688000      23.58628000       0.06578350       0.02696720      -0.00626085
H       14.80580000       1.35758000      22.85158000       0.01219520      -0.05445390      -0.02317410
O       12.68522000      13.56410000      19.41040000       0.05586340       0.02267990      -0.00226697
H       14.14762000      14.56690000      18.57650000      -0.04642570      -0.02040870      -0.00003041
H       13.65652000      12.93380000      20.89550000      -0.02488320       0.00255192       0.00161559
