192
TotEnergy=-1103.90583000 cutoff=-1.00000000 nneightol=1.20000000 pbc="T T T" Lattice="25.34097000       0.00000000       0.00000000      -0.00000100      25.34097000       0.00000000      -0.00000100      -0.00000100      25.34097000" Properties=species:S:1:pos:R:3:force:R:3:Z:I:1
O               7.70595000     23.93000000     23.68430000     -0.00038955     -0.00092562      0.00245145       8
H               6.94946000     22.44440000     22.96340000      0.00166632      0.00177338     -0.00024215       1
H               6.49576000     24.50770000     24.94240000     -0.00085525      0.00004472     -0.00280951       1
O              21.74080000      8.55322000      1.56443000     -0.00183128      0.00972461     -0.00013047       8
H              23.21920000      8.60965000      0.50684900     -0.00133365     -0.00613817      0.00368395       1
H              21.12230000      6.84597000      1.77783000      0.00528487     -0.00054419     -0.00246268       1
O               9.04191000      5.85565000     16.61810000     -0.01221300      0.00881744      0.00210481       8
H               8.49150000      4.38105000     15.67710000      0.00643450     -0.00153350      0.00614777       1
H              10.15830000      5.41207000     18.01490000     -0.00234819     -0.00608409     -0.00898705       1
O              17.75520000     16.45690000      4.92362000      0.00219241     -0.00031183     -0.00260234       8
H              19.50680000     16.00570000      5.12950000     -0.00315697      0.00195789      0.00327455       1
H              17.06730000     14.96030000      4.15657000     -0.00316860      0.00173416      0.00239420       1
O              13.23630000     11.33620000     17.21510000      0.00171453      0.00834042      0.00570416       8
H              13.54550000     11.47620000     19.02990000     -0.00656342      0.00186689     -0.00190560       1
H              13.67080000      9.64759000     16.81460000      0.00259922     -0.01221950     -0.00470924       1
O               4.49640000     14.44430000      3.54839000     -0.00281781     -0.00286937      0.00401444       8
H               3.07847000     15.55600000      3.15298000      0.00208344     -0.00280782     -0.00105915       1
H               3.80184000     13.10050000      4.57303000      0.00317856      0.00345436     -0.00302880       1
O              12.06470000     14.02110000      3.48455000      0.00047184     -0.00869753     -0.00036895       8
H              11.09840000     14.58780000      4.92773000     -0.00151356     -0.00984666     -0.00290543       1
H              11.81460000     12.20240000      3.25441000      0.00205324      0.01745710      0.00667243       1
O              22.52660000     23.43980000     24.20540000     -0.00250457     -0.00077437     -0.00863530       8
H              23.30980000     22.38880000     22.92290000     -0.00132924      0.00077932      0.00109889       1
H              23.41320000     23.17530000     25.74610000      0.00263678      0.00101215      0.00314183       1
O              19.54860000     23.15940000     15.78280000     -0.01270140      0.00188611     -0.00689994       8
H              20.24110000     24.61800000     14.90030000      0.00862839     -0.00401193      0.00036901       1
H              20.24890000     23.19470000     17.43700000      0.00584489      0.00045233      0.00632038       1
O              21.01720000     25.06390000      6.29928000      0.01150240     -0.00392339      0.00331684       8
H              21.62340000     26.15500000      7.62591000     -0.00426587      0.00662496     -0.00310952       1
H              21.93630000     23.50370000      6.61868000     -0.00236315      0.00069901     -0.00174033       1
O              23.08560000     15.16560000      6.39646000      0.00211969     -0.00193541     -0.00067147       8
H              23.77350000     14.37660000      4.90914000      0.00039667      0.00386251      0.00236851       1
H              23.76800000     14.24540000      7.80619000     -0.00000624      0.00011756     -0.00217387       1
O               0.60242100     14.74530000     14.90770000      0.00144795     -0.00491282     -0.00187436       8
H              -0.29957800     14.67590000     16.48470000     -0.00492625      0.00427953      0.00030459       1
H               1.16409000     13.02570000     14.72480000      0.00230914      0.00343180     -0.00054699       1
O              24.32310000      3.29333000     18.85660000      0.00756788      0.00287321      0.00034710       8
H              23.79310000      2.86304000     20.53350000     -0.00089591     -0.00268218     -0.00057053       1
H              26.12290000      2.93271000     18.83400000     -0.00720314     -0.00411191     -0.00124228       1
O              10.72510000      2.60509000      0.91698700      0.00489249     -0.00333824      0.01052330       8
H              10.18400000      1.11037000      0.02587000      0.00184479      0.00054263      0.00252453       1
H              11.42850000      2.02713000      2.53336000     -0.00806517      0.00192002     -0.01464480       1
O              18.65650000     10.23740000      9.54186000      0.00804535      0.00371479      0.00141645       8
H              18.47590000     10.45990000      7.63889000      0.00385215      0.00292940      0.00731424       1
H              19.56040000     11.65600000     10.26290000     -0.00667083     -0.00634929     -0.00912223       1
O              12.86060000     23.23770000     20.18500000      0.00151986      0.00309349      0.00271403       8
H              12.82130000     21.40970000     20.36410000     -0.00200391      0.00232719     -0.00110008       1
H              11.47390000     23.93830000     21.14230000      0.00373237     -0.00497780     -0.00240527       1
O               8.14643000     15.17970000      7.73463000     -0.01161670      0.00363637     -0.00631112       8
H               6.94682000     14.96540000      6.33570000      0.00819004     -0.00236765      0.00634676       1
H               7.45523000     16.67110000      8.52825000      0.00544120      0.00133264     -0.00076011       1
O               7.00555000     18.04500000     -0.59218700     -0.00675148      0.00216143     -0.01283310       8
H               6.31861000     16.72070000      0.41188500     -0.00103110     -0.00651918      0.00743264       1
H               8.24772000     18.87750000      0.39637300      0.00755706      0.00365114      0.00736568       1
O              18.18790000     10.65770000      4.73629000     -0.00617094      0.00642928      0.00282262       8
H              19.50000000     10.19490000      3.54696000      0.00185815     -0.00334503     -0.00027650       1
H              16.56500000     10.13720000      4.01391000      0.00922410     -0.00067790     -0.00415534       1
O              20.41060000      7.66652000     16.93410000     -0.01338450     -0.00302609     -0.00421431       8
H              18.38420000      7.49381000     14.88010000      0.01330240     -0.00761151      0.01450840       1
H              21.19480000      6.24498000     17.83500000     -0.01644780      0.01060410     -0.01977470       1
O              23.32670000     20.48430000      8.21585000      0.00173139     -0.00689308     -0.00143117       8
H              22.14630000     20.28120000      9.61362000     -0.00232783      0.00201334     -0.00212352       1
H              23.03030000     18.98230000      7.20512000      0.00064988      0.00180901      0.00139610       1
O              12.09500000     19.57260000      4.37228000      0.00161683      0.00408964     -0.00122091       8
H              13.59460000     20.56140000      4.65009000      0.00025871      0.00016265      0.00179581       1
H              12.72890000     18.00980000      3.70282000     -0.00047238     -0.00257029     -0.00020201       1
O              13.21130000     17.85540000     19.79280000      0.00005021      0.00069008     -0.00020093       8
H              14.55390000     17.39580000     18.63840000     -0.00298724     -0.00166380      0.00176786       1
H              13.20630000     16.57510000     21.09270000      0.00164669      0.00077677     -0.00406491       1
O              16.92660000      7.70184000     13.28550000      0.00170336     -0.00192101      0.00001806       8
H              17.62300000      8.70766000     11.78330000     -0.00842422     -0.01016360      0.00946036       1
H              15.55620000      6.43920000     12.82370000      0.01699180      0.01029800      0.01124530       1
O               4.10126000      0.75369600     18.47930000     -0.00237587      0.01402930     -0.01210260       8
H               4.72107000      0.73867000     16.74610000      0.00169250      0.00521463      0.00451211       1
H               4.38317000     -0.90624400     19.07650000      0.00060901     -0.01467750      0.00868516       1
O              13.00540000      4.41505000     12.31000000     -0.00492194      0.00222294     -0.00851394       8
H              11.34240000      4.64318000     11.52560000      0.00934507     -0.00241294      0.00557441       1
H              13.06490000      2.69065000     12.89580000      0.00058754      0.00102763      0.00084621       1
O               9.57210000      7.72730000     24.64140000      0.00424387     -0.01711300      0.00897407       8
H               9.42454000      5.89356000     25.03710000      0.00078709      0.02479500     -0.00902655       1
H               8.88901000      8.04853000     22.99440000     -0.00177862     -0.00913978      0.00095761       1
O              13.80240000     16.61990000     11.60170000     -0.00341115      0.00075904      0.00039980       8
H              13.11490000     16.53040000      9.92487000      0.00435050      0.00034014     -0.00135991       1
H              12.48940000     15.83260000     12.61670000      0.00124046     -0.00066749     -0.00273574       1
O              22.69100000      1.35113000     13.41540000     -0.00481449      0.00376399     -0.00326254       8
H              23.38200000      2.09444000     14.91570000      0.00262101      0.00033954      0.00727212       1
H              22.25060000      2.79210000     12.39050000      0.00109078     -0.00045900     -0.00357025       1
O              21.87090000     16.20390000     24.16240000     -0.00301853      0.00022748     -0.00131861       8
H              21.53180000     17.55980000     22.99450000      0.00167412     -0.00520544     -0.00043788       1
H              21.43350000     14.65290000     23.30440000      0.00219980      0.00292057      0.00183351       1
O               2.94169000     23.57860000      6.83677000     -0.01190400     -0.00237212      0.00017321       8
H               4.41100000     22.60090000      7.25466000      0.01065900     -0.00437367      0.00194679       1
H               1.51888000     22.59600000      7.44080000      0.00377262      0.00432439     -0.00241962       1
O               9.75118000     22.52220000     12.89720000      0.00598440      0.01027210     -0.01061440       8
H               9.25411000     21.08070000     13.83980000     -0.00336922     -0.01269090      0.00975410       1
H              11.46590000     22.95940000     13.44800000     -0.00631240     -0.00473355     -0.00053711       1
O              23.93620000     20.47160000     19.76390000      0.02460580      0.01668770      0.01350890       8
H              25.72340000     20.00470000     19.69090000     -0.00794146      0.00471524      0.00352393       1
H              23.10760000     19.23120000     18.81210000     -0.01517860     -0.02284130     -0.01243610       1
O              16.38500000     23.17840000      7.40297000      0.00501394     -0.00585487      0.00793591       8
H              16.77980000     22.61870000      9.11352000     -0.00264342      0.00212225     -0.01306560       1
H              17.99790000     23.76500000      6.72784000     -0.00221753      0.00059271      0.00507653       1
O              17.71140000      5.98579000     23.34950000      0.00001493     -0.00555543     -0.00009685       8
H              17.99770000      4.63636000     22.15960000     -0.00122410      0.00148887      0.00143234       1
H              17.82750000      5.08728000     24.94360000     -0.00115107      0.00326395     -0.00065569       1
O              18.87880000      4.15079000      2.99870000     -0.00197022     -0.00061129      0.00249153       8
H              19.58190000      2.52045000      3.40857000     -0.00173548      0.00347859      0.00175841       1
H              17.76190000      4.61291000      4.37478000      0.00359404     -0.00320848     -0.00266237       1
O               4.10723000      0.71598000      1.87106000      0.00233664     -0.00386243     -0.00754889       8
H               3.74801000     -0.27815400      3.36754000      0.00324040      0.01126910      0.00155953       1
H               4.86185000      2.31473000      2.30534000     -0.00413773     -0.00829622      0.00672372       1
O               8.89027000      4.42440000      8.26587000      0.00614666     -0.00057208     -0.00284290       8
H               7.06547000      4.26508000      8.28963000      0.00467088     -0.00489233      0.00208543       1
H               9.56140000      3.05286000      7.25799000     -0.00463225      0.00647239      0.00395047       1
O               8.18869000     21.31580000      7.78264000      0.00206850      0.00286171     -0.00088602       8
H               9.01327000     21.60560000      9.39500000     -0.00237912     -0.00132355     -0.00188784       1
H               9.46287000     20.73970000      6.59188000     -0.00248437     -0.00175983      0.00318432       1
O              15.23950000      5.83048000      6.93351000      0.00402112      0.01190190      0.00504326       8
H              15.81460000      7.10188000      8.08835000      0.00580908      0.00334367     -0.00585556       1
H              13.93600000      5.07775000      7.91041000     -0.01106760     -0.01701700      0.00227060       1
O              14.13300000     24.10550000     14.89710000      0.01692990      0.01853370      0.02789990       8
H              13.74960000     24.36090000     16.68040000     -0.02719400     -0.00560831     -0.00061510       1
H              15.92200000     24.17530000     15.30290000      0.01131990     -0.01120230     -0.02471990       1
O              22.08320000      5.01179000      9.03364000     -0.00220908      0.01065560      0.00124190       8
H              23.51910000      5.86694000      8.29316000      0.00295307     -0.00540737     -0.00317635       1
H              20.85560000      6.36406000      9.07845000      0.00113345     -0.00651469      0.00199531       1
O               7.65556000     17.53720000     16.34950000     -0.00154610      0.00021604     -0.00509848       8
H               9.07787000     17.49920000     17.47870000      0.00263003     -0.00188395     -0.00058382       1
H               7.84533000     16.07140000     15.25420000      0.00259523      0.00541911      0.00668536       1
O              12.34780000     25.80840000      6.13262000     -0.00197105     -0.00753842      0.00386227       8
H              11.51900000     24.69730000      7.32628000     -0.00499138      0.00610797     -0.00828281       1
H              14.03420000     25.04350000      6.21000000     -0.00156006      0.00721385      0.00220996       1
O               9.75403000     13.57570000     13.17260000     -0.00244753      0.00344772      0.00286340       8
H              10.18150000     12.02600000     14.03870000     -0.00151151      0.00457990     -0.00759012       1
H               9.02355000     13.30520000     11.51940000      0.00228585     -0.00760332      0.00524554       1
O              12.57340000      4.92611000     20.26290000      0.01202430      0.00210237     -0.00202886       8
H              14.23070000      5.36253000     19.64720000     -0.00421551     -0.00231334      0.00138750       1
H              12.78660000      4.96319000     22.06310000     -0.00239871     -0.00096401      0.00241857       1
O               3.87869000      2.80907000      9.52369000     -0.00358691     -0.00382928     -0.00379660       8
H               2.61303000      4.11950000      9.48474000      0.00325984     -0.00534192     -0.00383026       1
H               3.23528000      1.34606000      8.57863000      0.00303352      0.00961857      0.00561565       1
O               0.68928800     17.33060000      1.71128000     -0.01365120      0.00503194     -0.00683941       8
H               0.18146300     19.00710000      2.18501000      0.00487775     -0.00336130      0.00239160       1
H              -0.63707700     16.83350000      0.49734000      0.00572939     -0.00289942      0.00472465       1
O               0.98179000      9.28640000     17.30650000      0.00102324     -0.00212615     -0.00125335       8
H              -0.75358900      8.67484000     17.36420000      0.00494202      0.00070112     -0.00206112       1
H               1.98609000      8.24985000     18.42840000     -0.00631615     -0.00009566     -0.00075385       1
O               2.29060000      8.19964000     25.05990000     -0.00292608     -0.00674820     -0.00293746       8
H               3.65618000      9.37061000     25.12880000      0.00426806      0.00774086      0.00414195       1
H               2.73642000      7.23397000     23.57460000     -0.00246848      0.00030053      0.00241236       1
O              21.45220000     15.45890000     18.30990000     -0.00027147     -0.00227617      0.00528990       8
H              20.41720000     15.36540000     16.80110000     -0.00374411     -0.00135851      0.00921860       1
H              20.69660000     14.27630000     19.50700000      0.00579059      0.00714134     -0.01421770       1
O              14.07730000     12.51780000     22.23780000      0.00392883     -0.00199414      0.00213436       8
H              15.85910000     12.20730000     22.49980000     -0.00062809      0.00055282     -0.00300577       1
H              13.24290000     11.68110000     23.61870000     -0.00126775      0.00185811     -0.00176977       1
O               4.25206000     19.55700000     20.29190000     -0.00253479     -0.00141796     -0.00186879       8
H               4.83163000     18.52060000     18.88840000      0.00277960      0.00500582      0.00653409       1
H               4.97858000     18.83950000     21.81770000     -0.00104442     -0.00027982     -0.00565467       1
O               4.58433000      9.88631000     13.29910000     -0.00300663     -0.00607910      0.01354680       8
H               3.24459000      9.36422000     14.47270000      0.00169701      0.00433085     -0.00821375       1
H               6.06667000      9.62771000     14.32910000     -0.00118714      0.00090965     -0.00720012       1
O               2.81822000     12.14250000      8.40331000      0.00108603      0.00636293      0.00252816       8
H               2.71215000     13.97420000      8.56407000      0.00053859     -0.00360329      0.00256043       1
H               3.83266000     11.64860000      9.84651000     -0.00340834     -0.00242118     -0.00081973       1
O              19.81880000     11.22360000     21.62980000     -0.00030277     -0.00099004     -0.01380790       8
H              19.61150000     10.13210000     23.05090000      0.00168829     -0.00901977      0.00704029       1
H              20.09150000     10.05790000     20.19440000     -0.00376704      0.00470949      0.00358648       1
O              17.58630000     25.67950000     22.51200000      0.00555264     -0.00241959     -0.00472272       8
H              19.16280000     24.79580000     22.82920000     -0.00943227      0.00113710      0.00179473       1
H              16.38790000     24.50080000     21.78780000      0.00333021      0.00392208      0.00300501       1
O               4.99762000      6.05910000     20.29820000     -0.00070328     -0.00219423     -0.00353725       8
H               4.75831000      4.24888000     20.36380000      0.00082728      0.00061017     -0.00091752       1
H               6.18907000      6.22336000     18.89850000      0.00083664      0.00131900      0.00279355       1
O               2.51271000     17.45340000     10.00540000      0.00138108     -0.00042779     -0.00405037       8
H               1.10278000     18.48990000      9.50869000     -0.00034302      0.00085726     -0.00078156       1
H               2.21991000     17.13250000     11.76540000     -0.00096195     -0.00358667      0.00642141       1
O               6.90173000      1.56327000     13.76040000     -0.00704230     -0.00342843      0.00015373       8
H               7.62546000     -0.08501500     13.36410000      0.00278590      0.00573313      0.00098755       1
H               5.85218000      2.02680000     12.32050000      0.00217177     -0.00067975      0.00322222       1
O               1.41886000      7.21738000      6.34611000     -0.00016114      0.00440759      0.01400600       8
H               1.95085000      8.82979000      7.04909000     -0.00271194     -0.00444267     -0.00615350       1
H               1.67372000      7.30926000      4.56315000     -0.00059412      0.00081862     -0.00588088       1
O              16.80600000     15.14570000     15.85510000      0.00604253     -0.00576363      0.01553830       8
H              16.12180000     15.43740000     14.22230000     -0.00607039      0.00240089     -0.01260470       1
H              16.02890000     13.58370000     16.43330000     -0.00201784      0.00372040     -0.00516670       1
O              18.95940000     19.76360000     11.44850000      0.00324386      0.00022254     -0.00372514       8
H              17.54730000     18.65180000     11.15020000      0.00222456      0.00128985      0.00512110       1
H              19.04940000     20.15910000     13.22520000     -0.00375697      0.00150604     -0.00050643       1
O              13.99790000      8.74057000      2.71217000     -0.01229200     -0.00951706     -0.00841449       8
H              13.64750000      7.58328000      4.08691000      0.00279715      0.00037313     -0.00253327       1
H              13.44480000      7.86640000      1.18821000      0.00252563      0.00780796      0.00988005       1
