192
Lattice="24.45756 0.0 0.0 0.0 24.45756 0.0 0.0 0.0 24.45756" Properties=species:S:1:pos:R:3:force:R:3 TotEnergy=-1103.38643 cutoff=-1.0 nneightol=1.2 pbc="T T T"
O       23.13530000      20.93846000      18.34382000       0.04037260      -0.06506870      -0.02625460
H       21.88650000      21.21703000      17.02232000      -0.00528308      -0.00002040       0.00577319
H       23.92900000      19.04633000      17.78802000      -0.02537200       0.07299200       0.02089210
O       22.20164000      21.76664000      23.48707500      -0.02695330      -0.00175835       0.15006700
H       22.60844000      23.39394000      24.22210900       0.00033585      -0.00376579       0.00156088
H       22.51504000      21.88654000      21.89539000       0.02697420       0.00214388      -0.14726500
O       12.26830000       2.11110000      16.21720000      -0.00023863       0.01822960       0.03915560
H       12.55940000       2.97374000      17.94790000      -0.00439344      -0.02964510      -0.04963500
H       11.59050000       0.21698700      16.21670000       0.00040171       0.03472460       0.01626330
O       18.15702000      15.93227000      21.87172000       0.05240460      -0.01347120      -0.00443914
H       20.03355000      15.22218000      21.55756000      -0.05650170       0.01699620       0.00540281
H       18.43069000      17.36303000      22.95626000      -0.00640123      -0.00090464       0.00441464
O        6.52856000       7.32804000      18.58150000      -0.06614930      -0.00048352       0.07371130
H        7.32132000       8.47764000      19.77250000       0.01472960       0.00839707      -0.01581350
H        7.31508000       6.82614000      17.16860000       0.05391430      -0.00809234      -0.06246680
O       18.95075000       8.86653000       6.52172000       0.03908800       0.00404774       0.07997720
H       18.45328000       7.43507000       7.54531000      -0.00139063      -0.00277825      -0.00666732
H       18.09309000       8.86257000       5.02556000      -0.03359700      -0.00960337      -0.06817840
O       21.47014000       2.38944000      14.25210000       0.03140560      -0.04844950       0.00040581
H       23.45204000       2.41584000      13.49060000      -0.05904790      -0.01735390       0.03263650
H       20.81054000       0.56114000      14.84560000       0.03672410       0.06967010      -0.02758940
O       21.48322000      16.19032000       7.12879000      -0.00316055       0.02547050      -0.02114800
H       22.31721000      17.55912000       5.83660000      -0.03502490      -0.05230730       0.02503350
H       19.63696000      15.79612000       6.87823000       0.03364590       0.01672320      -0.00604731
O        7.95174000      14.72782000      17.69760000       0.00284714      -0.01344040       0.00040772
H        7.39074000      14.49012000      15.89320000      -0.00360705      -0.00685453       0.04404670
H        7.85304000      13.26442000      19.05260000      -0.00118312       0.02880040      -0.04254150
O        7.82498000      20.80672000      23.80902000       0.04981640       0.00628886      -0.00669960
H        9.80939000      21.18682000      23.24992000      -0.06155850      -0.02302180       0.03200870
H        7.65724000      19.65892000       0.84836000       0.01802520       0.01043030      -0.01850260
O       14.73003000       1.23769000       6.68546000       0.04952520      -0.00319261      -0.00092573
H       13.95006000       2.32502000       5.53936000      -0.01401080       0.02480970      -0.03545610
H       13.44406000       0.78685700       7.77754000      -0.03798370      -0.01683250       0.03617600
O       12.76756000       4.66004000       2.85938000      -0.07316660      -0.05241160      -0.06746090
H       10.68696000       4.54644000       2.52238000       0.06965480       0.01025880       0.02184560
H       13.27346000       3.47344000       1.30878000      -0.00066081       0.03730120       0.04872180
O       15.35200000      16.97242000      10.63676000      -0.01920260       0.06380080       0.11322200
H       15.56380000      15.60762000       9.61306000       0.01067080      -0.06461310      -0.02271460
H       15.08370000      16.58742000      12.64356000       0.00758453       0.00290519      -0.09020830
O        4.80924000      15.56630000      13.62714000       0.14482800      -0.02195620      -0.10243400
H        3.61744000      15.95600000      14.64784000      -0.12525900       0.02147670       0.09509720
H        4.51814000      14.19550000      12.50354000      -0.01573930      -0.00885139      -0.00194510
O        0.07502900       1.37545000       1.89140000      -0.02609360      -0.02815770       0.05154230
H       24.40312100       0.18704000       3.46326000       0.00456842       0.03811550      -0.04595390
H        1.58898000       1.03681000       1.02837000       0.02949560      -0.00680732      -0.00668607
O       16.94632000      20.91500000       6.76934000       0.00667271      -0.01035170      -0.00759305
H       16.16732000      22.53800000       6.71664000      -0.00527867       0.01508220      -0.00188269
H       16.05142000      19.96240000       8.02084000       0.00027073      -0.00488413       0.00918976
O       14.96532000      12.22880000      23.93100000      -0.04516510      -0.09304750      -0.02565580
H       14.40062000      10.74360000      22.51520000       0.01829990       0.06776990       0.03766460
H       15.81632000      13.51830000      23.07760000       0.02677790       0.02525340      -0.02206400
O        2.91716000      17.23398000       5.78356000       0.02650200       0.00246891       0.01813780
H        3.83826000      17.80608000       7.43536000      -0.01535450      -0.02753740      -0.03791720
H        3.22286000      15.52188000       5.07166000      -0.00088737       0.02165880       0.02179340
O       18.67988000      21.42160000      15.78534000       0.00265998       0.00048515      -0.01539970
H       17.58418000      22.33870000      14.61334000       0.00828823       0.00961849       0.00491802
H       17.61428000      20.11380000      16.41934000      -0.00435308      -0.01179220       0.01172540
O        7.20548000       4.71326000       2.83726000      -0.06141660      -0.07348280       0.04456410
H        6.82138000       3.68506000       4.58665000       0.02797390       0.04470180      -0.03934460
H        5.82138000       3.51576000       2.01682000       0.04966430       0.03466340       0.00297116
O        5.35724000      19.28880000      10.02136000       0.03620760      -0.01622820      -0.00232946
H        7.24094000      19.00980000      10.14896000      -0.02627550       0.00500074      -0.01131110
H        4.64294000      18.29030000      11.37296000       0.00037344      -0.00013214       0.00530155
O        9.62216000       6.46779000      14.04718000       0.03562980       0.02096680      -0.02679670
H       10.48656000       7.80390000      12.92918000      -0.01611510      -0.02951850       0.03220490
H       10.87926000       5.10792000      14.33568000      -0.01691170       0.01060260      -0.00108410
O        5.37534000       0.66253300       0.26388400      -0.01021360       0.01062270       0.00318554
H        5.58530000       1.64858000      23.19277000      -0.00836472      -0.00808952      -0.00442542
H        6.18289000      23.49817200      24.44559500       0.00645346      -0.00203994       0.00100204
O       20.09144000       3.83328000       1.04644000       0.00122613       0.00100922       0.01746400
H       19.50094000       5.27620000       1.98274000      -0.01721700       0.01242380      -0.01294270
H       20.95444000       2.99539000       2.41914000       0.00790871      -0.01154770      -0.01359980
O       24.01623600      11.69328000       6.64484000      -0.04637470       0.01751920       0.01229920
H       22.82705000      10.24998000       6.95304000       0.01945120       0.02919240      -0.00982784
H       22.90446000      13.37358000       6.80034000       0.02849210      -0.03999220      -0.00261366
O       12.09220000      11.02144000      11.60010000      -0.00425496      -0.02196940       0.04282170
H       11.09390000      11.61104000      10.28460000      -0.02229060       0.01748840      -0.03612420
H       13.81590000      10.95374000      11.13910000       0.02141070       0.00139516      -0.00681157
O        6.64246000      20.40700000      18.91870000      -0.02011390      -0.03649120       0.04666800
H        6.22496000      18.52830000      18.63000000       0.01825820       0.04412780       0.00703411
H        6.46496000      20.64870000      20.97850000       0.01582900      -0.01371550      -0.06201110
O        7.47194000      10.13194000       1.75318000       0.05662540      -0.06910080      -0.01251280
H        7.24404000       8.32454000       2.37278000      -0.00092464       0.03546280      -0.01448770
H        6.20974000      11.12934000       2.35248000      -0.05664200       0.03355070       0.02195350
O       13.39430000       9.62274000      19.58550000      -0.01395210       0.17997100      -0.02884550
H       14.52580000      10.42964000      18.23870000      -0.02965100      -0.00858661       0.03507990
H       13.88580000       8.07484000      19.50140000       0.04188520      -0.15889100       0.00186505
O        3.16083000      23.90552000      17.16700000      -0.05104370      -0.05630710       0.02639070
H        1.18153000      23.08892000      17.80660000       0.07297430       0.02120490      -0.02805240
H        4.38692000      22.41302000      17.47790000      -0.02572200       0.03361680      -0.00395432
O       23.49434400      18.48440000       3.13509000      -0.03325720       0.00216414       0.01288210
H        0.75737200      18.46700000       2.81011000       0.04161310      -0.00620244       0.00636732
H       22.81569000      19.30310000       1.70534000      -0.01963800       0.00976363      -0.02881860
O        2.35594000       2.16209000      12.92870000       0.02501490      -0.04413470       0.01199690
H        2.81250000       1.07520000      11.29260000      -0.01482050       0.02232020       0.05675590
H        3.05944000       1.10255000      14.70530000      -0.02880140       0.02000430      -0.06121880
O       15.22942000       5.26088000      19.74412000       0.06758180      -0.02945980      -0.00189512
H       17.27322000       5.34788000      19.25912000      -0.06547400       0.00441675       0.01060390
H       15.24842000       3.89988000      21.06772000      -0.00215073       0.02096750      -0.00847978
O        6.48983000       2.61908000       7.91116000       0.07476740       0.05242520      -0.02347340
H        5.87969000       4.19448000       8.60646000      -0.00490312      -0.00267015       0.01615990
H        5.28171000       1.43988000       7.75646000      -0.06604370      -0.05478260       0.00175524
O       12.63412000      14.43724000       3.38950000      -0.08507310       0.00150898       0.05264500
H       13.05982000      13.73574000       1.78608000      -0.00193631      -0.01933090      -0.01909300
H       10.61052000      14.30894000       3.78528000       0.07996820       0.00660412      -0.02873890
O       18.54930000      11.15264000      17.20410000      -0.01503200      -0.02818600       0.06079560
H       18.90190000      11.58244000      15.57880000       0.00692809       0.01413300      -0.06262230
H       18.70300000       9.30484000      17.28200000       0.00724138       0.01384940       0.00316930
O        8.55526000      13.07986000       8.02690000      -0.01234990      -0.01949600       0.00775184
H        8.68256000      11.79426000       6.78806000       0.02105100      -0.00540658      -0.02495230
H        6.91526000      12.32176000       8.57977000      -0.00219612       0.02712390       0.01352600
O        4.00912000       3.31473000      20.50620000       0.05378230       0.03536200      -0.01257830
H        4.10492000       2.64406000      18.82610000      -0.02073610      -0.02609500      -0.00280926
H        5.53252000       4.47957000      20.10130000      -0.03908570      -0.00256637       0.02185480
O        4.02876000      11.59256000       9.41494000      -0.01538580      -0.03200020      -0.01229380
H        4.20606000       9.69786000       9.62414000      -0.00712318       0.03359100       0.00073144
H        2.53356000      11.91266000       8.25934000       0.01989610      -0.01228420       0.02238720
O       16.24840000      13.26280000       7.24674000       0.01264390      -0.04559660       0.00452149
H       16.69260000      11.38130000       7.20874000      -0.00264030       0.04527480      -0.00098513
H       14.74340000      13.34230000       6.25184000      -0.00789108       0.00722892      -0.01559690
O        2.89176000      23.14398000       9.03634000      -0.03268580       0.00894547      -0.04233590
H        4.25146000      21.81525000       8.84844000      -0.03452460       0.01024080       0.00784039
H        1.31016000      22.96175000       7.88074000       0.05366190      -0.00386756       0.03211620
O       17.51744000       4.50286000       9.91364000       0.02966360      -0.01155970      -0.01034430
H       16.24144000       3.63167000       8.98094000      -0.02189050      -0.00231457      -0.00776961
H       18.85434000       3.26167000       9.54404000      -0.00422053       0.02034460       0.01530810
O       15.19031000      18.03732000      18.09737000      -0.03265530       0.04591050      -0.04131610
H       15.99526000      17.07372000      19.25696000       0.04923930      -0.03109250       0.06405150
H       14.43376000      16.72012000      17.15271000      -0.01411930      -0.00831862      -0.02254790
O        5.40038000       6.30166000      11.10986000      -0.03646590       0.00351707       0.08539420
H        6.77108000       6.52396000      12.48996000      -0.01959130      -0.01031930      -0.03904530
H        3.88678000       5.68996000      12.37816000       0.05177380       0.00910128      -0.05649290
O       10.66610000      24.41904300       9.75947000       0.01522300      -0.03755560      -0.11389400
H       11.11000000      24.28506800      11.36390000       0.00750606       0.01450700       0.09559530
H        9.58506000       1.09664000       8.90972000      -0.02645130       0.02204400       0.01989530
O       13.06022000      21.15192000      22.59054000      -0.05354500       0.10101100      -0.02190750
H       12.97992000      20.64402000      20.93004000       0.00649892      -0.02398350      -0.04285440
H       13.71842000      19.96914000      23.57944000       0.04782620      -0.07667020       0.06218830
O       12.62590000      14.92189000      14.99217000       0.01429470       0.03063300       0.02560460
H       11.21470000      14.92690000      16.12017000      -0.01530480       0.00628071       0.01719510
H       12.13550000      13.68606000      13.85916000      -0.00234087      -0.03861580      -0.03645340
O       22.60890000      17.96300000      11.81650000       0.02684830      -0.04025360      -0.09269890
H       21.06130000      18.52240000      12.26980000      -0.06347380       0.03030900       0.03112850
H       21.98930000      17.35990000       9.80572000       0.03290390       0.00957445       0.06263400
O       10.76790000      22.23200000      16.03856000      -0.00381799      -0.05287790       0.02495540
H        9.44547000      21.43830000      17.27665000       0.02345550       0.01610730      -0.02751310
H       12.30190000      21.14600000      16.08860000      -0.02724050       0.01209360       0.00082900
O       22.51270000      23.01424000       5.54234000      -0.00591876      -0.02945650       0.00543797
H       21.20590000      22.83974000       6.83884000       0.00920872      -0.00124610      -0.01466660
H       22.60000000      21.33064000       4.63994000      -0.00137203       0.02670720       0.02017010
O       16.60065000       8.00936000       2.17384000      -0.00633974       0.03510400      -0.02312490
H       16.17039000       9.46564000       0.91516900       0.00917612      -0.03243320       0.03975670
H       15.03610000       7.19602000       2.71989000       0.00072737       0.00157215      -0.01247120
O       16.16740000       0.70416000      13.72640000      -0.02421430       0.02363410       0.01528770
H       16.95090000       2.31196000      13.26830000      -0.00380695      -0.01723010       0.00136084
H       14.74380000       1.26076000      15.00660000       0.02608910      -0.00539608      -0.02777630
O        0.57693300      16.33990000      15.97214000       0.08772610       0.00525562       0.06364860
H       24.26066800      15.22290000      17.04994000      -0.03581120      -0.03044430       0.02164930
H       24.20043900      17.09420000      14.72024000      -0.06379750       0.02629670      -0.07877550
O       15.67854000      18.14084000       2.09325000      -0.04474270       0.03598910       0.08198740
H       15.65304000      19.55714000       3.70037000       0.01141700      -0.05917750      -0.06605450
H       14.28954000      16.87974000       2.80272000       0.03893470       0.03214200      -0.02120760
O       22.06150000      13.73090000      20.00972000       0.06222340       0.00891706       0.02969150
H       23.04640000      12.27080000      20.52882000       0.01582470       0.01175120       0.01527470
H       20.91830000      12.78380000      19.14542000      -0.06586690      -0.02814310      -0.04817890
O        8.01416000      17.39344000       3.78818000       0.00310072       0.00262221       0.01824290
H        6.16076000      17.33764000       4.42619000       0.05714990       0.00606273       0.00262491
H        9.47886000      17.63364000       5.08255000      -0.06544550       0.00076949      -0.02427780
O       10.34160000      19.04182000       8.75824000      -0.04581740      -0.02585110      -0.01411800
H       11.16290000      17.50942000       9.29384000       0.02302670       0.02670760       0.00412022
H       10.84520000      20.76702000       8.63644000       0.02449280       0.00001851       0.01438340
O        2.52487000      12.71594000       2.58982000       0.00422266      -0.00007686      -0.02118110
H        1.35187000      12.17374000       3.92489000      -0.00274178      -0.00630575      -0.02054770
H        2.07372000      12.13814000       0.83456800       0.00196479       0.00281669       0.04072210
O       17.43809000      10.46506000      11.86760000       0.04270200      -0.02462900      -0.05398770
H       17.57181000       8.55256000      11.83770000      -0.00066842       0.04231230      -0.00129120
H       18.53046000      11.03756000      10.29240000      -0.03835400      -0.02271140       0.05821580
O       20.02724000       6.23172000      18.31260000      -0.02738830      -0.03544810      -0.07957930
H       21.15427000       5.68027000      19.54960000       0.03393620      -0.00633047       0.03112790
H       20.37426000       4.93447000      16.83960000      -0.00549205       0.03335660       0.03409770
O        1.68894000       9.62066000      22.38153000       0.03261420      -0.11071200      -0.08089790
H        0.78274000       7.77736000      22.24992000       0.00343417       0.06188280       0.01977540
H        3.01424000       8.68976000      20.96764000      -0.04169100       0.05911730       0.05680940
O       23.51680000       5.20924000      21.72824000      -0.04007350       0.05432730      -0.01828390
H       22.56810000       4.81841000      23.17834000      -0.01133570      -0.01558590       0.02969430
H        0.45014000       4.23518000      21.53234000       0.05935030      -0.04849860      -0.00627602
O       15.49090000       1.83154000      23.50214000       0.04419100      -0.05362570      -0.02715940
H       17.53580000       2.02104000      23.94284000      -0.07744150      -0.01151070      -0.01405670
H       14.98910000       0.10384000      22.46884000       0.02994420       0.06119080       0.05125560
O        8.54026000      11.14930000      21.06850000       0.03225240      -0.02476540       0.06027860
H       10.36636000      10.72190000      20.58070000      -0.03573910       0.00848226       0.01318400
H        8.32296000      10.81690000      23.10480000       0.00535995       0.01170110      -0.06020310
