192
Lattice="22.16367 0.0 0.0 0.0 22.16367 0.0 0.0 0.0 22.16367" Properties=species:S:1:pos:R:3:force:R:3 TotEnergy=-1102.95461 cutoff=-1.0 nneightol=1.2 pbc="T T T"
O        7.19970000      11.88470000       0.66950800      -0.04212140       0.07039320      -0.03317330
H        6.39519000      13.43280000      21.78610000       0.03070500      -0.03803260       0.03618280
H        6.65489000      10.56280000      21.63510000       0.01235380      -0.01565790       0.00250110
O       21.48400000      16.77110000      11.39900000      -0.09534610      -0.07074680      -0.06349990
H       22.05530000      16.33950000      12.90120000       0.02531490      -0.03895560       0.09886010
H        0.29390200      18.07940000      11.11660000       0.07433670       0.10191000      -0.03260720
O        6.57391000      15.08210000      15.52840000      -0.04471690      -0.00578849       0.03309220
H        5.21010000      13.62620000      14.84270000       0.03521180       0.04965850       0.03482380
H        5.90649000      16.06060000      17.21140000       0.01589510      -0.05195060      -0.06050720
O       19.82510000       1.54504000       6.08106000      -0.01640570      -0.04553050       0.02493200
H       19.16600000      22.10495100       7.18521000       0.02122550       0.04308280      -0.02971340
H       18.33970000       1.99137000       5.13219000      -0.00209796      -0.00562140      -0.00419976
O       11.47750000      13.87050000      15.07200000      -0.04811280       0.03684330      -0.02287330
H       12.54480000      12.78320000      15.97550000       0.00880184      -0.01316400       0.03485390
H        9.74110000      14.32000000      15.88490000       0.03309400      -0.01837050      -0.01857830
O        1.92141000       8.32636000      17.86160000       0.00216653      -0.01600600      -0.01358680
H        1.82062000       6.96970000      16.55430000       0.01000690       0.01756180       0.02966410
H        3.13296000       7.96247000      19.24820000      -0.00685536      -0.00606834      -0.02882330
O        9.95771000       0.21693500      18.26870000      -0.07633440       0.00662833      -0.04963550
H       11.33200000      21.83150000      19.32170000      -0.00056556      -0.03171640       0.00553729
H        8.45099000      21.09340000      17.77350000       0.05607930       0.04100490       0.02976800
O        0.05763000      12.45060000      19.86690000      -0.00338306       0.01247590      -0.02067210
H       21.80880000      11.67630000      18.21250000       0.00334580       0.00776435       0.02359860
H        0.24501600      11.02250000      20.91100000       0.00330731      -0.02214250       0.01218390
O       12.40850000      15.54190000      22.14850000      -0.02865890      -0.02996810      -0.01612280
H       10.82610000      14.94260000       0.67852600       0.00279258       0.00325346      -0.01127060
H       13.38830000      15.90310000       1.46119000       0.01521360       0.01415640       0.02153610
O       16.05270000      14.69410000       9.43595000      -0.00358983      -0.07816550       0.04396670
H       17.26060000      13.49180000      10.61270000      -0.04007640       0.03951070      -0.04366300
H       14.27810000      13.62220000       9.38574000       0.05537640       0.03896190       0.00021845
O       15.09520000      17.76100000      13.83660000      -0.04180430      -0.01802310       0.05934280
H       13.67830000      16.58810000      14.42480000       0.02217210       0.03034480       0.01068870
H       15.16650000      16.90690000      12.33210000       0.02381680      -0.01498090      -0.06465720
O        2.91954000      20.10250000      10.55910000       0.05943340      -0.00185810      -0.04043650
H        4.75422000      20.24850000      11.37550000      -0.05032550      -0.00789121      -0.02566550
H        3.30869000      19.91080000       8.50612000      -0.00756373       0.02024050       0.06637100
O        2.46434000      17.43670000       2.33583000       0.04789250      -0.00910931       0.03410210
H        3.33182000      18.65940000       3.56292000      -0.01937420      -0.00740508      -0.02463900
H        3.37934000      15.86140000       2.90935000      -0.03423050       0.02300840      -0.01167230
O       21.67420000       6.82587000       0.61460800       0.09897530      -0.04446350      -0.04706670
H        0.09373000       4.95859000       0.58397800       0.00042983       0.04849300       0.00344603
H       20.16660000       6.60677000       1.31774000      -0.09327410      -0.00302901       0.04985460
O        4.10646000       3.23431000      15.15970000      -0.05995810       0.00994585      -0.00322659
H        5.08773000       1.95918000      15.93420000      -0.00041215      -0.01321250       0.00937081
H        2.21284000       2.73069000      15.17540000       0.05905750       0.00621552       0.00213031
O       10.41950000       7.59905000       6.95655000      -0.03283520       0.04862320       0.01337870
H       11.14630000       8.43466000       5.48966000       0.00276833      -0.00088894       0.00039618
H        9.10478000       8.96737000       7.41206000       0.03423030      -0.04473420      -0.01278020
O        4.45588000       5.23895000       6.04900000       0.00846188      -0.01086850       0.00318071
H        6.10616000       4.42531000       6.34769000       0.00492962      -0.00065154       0.00959689
H        4.16143000       4.73533000       4.39452000      -0.01332250      -0.00487929      -0.03704160
O       17.37040000       6.61403000       3.53848000      -0.15166000      -0.09848790      -0.20527500
H       16.67070000       8.06585000       3.04100000      -0.02677700       0.08131540      -0.01575230
H       18.34670000       6.60836000       4.70529000       0.17361700       0.01798820       0.21948300
O        3.04403000       3.17392000      10.35770000      -0.01201730      -0.08474820       0.15466300
H        2.69955000       3.44690000       8.82210000      -0.02292720       0.03921220      -0.18103400
H        2.29137000       1.31263000      10.48100000       0.02978190       0.04627030       0.01219860
O       13.36700000       7.08880000      19.62540000      -0.01432710       0.09182400      -0.00716222
H       14.06320000       8.96450000      19.53390000      -0.03678560      -0.03585900       0.00378761
H       14.88720000       6.32922000      19.92520000       0.03635110      -0.03987740       0.00752981
O       19.17820000       6.58540000      18.26220000      -0.06461250      -0.03127940      -0.03845160
H       20.16670000       6.71288000      19.68780000       0.04144500       0.01263540       0.04383370
H       17.83610000       5.33103000      18.79670000       0.02255180       0.01407240      -0.01289930
O       14.26320000      12.09830000      18.86520000       0.03972750      -0.03274040      -0.02525900
H       14.16760000      13.45420000      19.94470000      -0.02593440       0.03836760       0.04037670
H       16.17280000      12.21410000      18.56060000      -0.03381930      -0.01700860      -0.01407200
O       19.83050000      11.55090000      11.43160000       0.01921700      -0.00466210       0.00152984
H       21.51170000      12.42330000      11.39820000      -0.02955570      -0.02657900       0.00238456
H       20.03240000       9.70322000      11.72950000       0.01298330       0.02950690      -0.00405068
O       11.59310000      21.98870000      13.14210000      -0.01907250       0.00564346      -0.00948052
H       11.02490000       0.48603000      14.71390000      -0.01120900       0.01080050       0.01506560
H       13.24060000      21.55010000      13.59630000       0.03428670      -0.01559820      -0.00355515
O        8.81084000      19.25200000       7.52232000       0.02844890       0.03378690      -0.18608700
H        8.89217000      17.53900000       6.83368000       0.00231733      -0.00093721      -0.00678365
H        8.63566000      19.03220000       9.07844000      -0.03123140      -0.01815810       0.19912300
O        2.44048000       8.81669000       7.85545000      -0.06127910       0.26000000       0.25090800
H        2.61699000       7.57167000       7.10555000       0.05178140      -0.31873500      -0.18566500
H        2.28583000      10.02470000       6.70659000      -0.00981340       0.07459510      -0.06357310
O        8.83829000      14.90680000       5.93570000       0.23492100      -0.01111610      -0.03443710
H        9.83776000      13.50960000       4.92699000      -0.02227370       0.02648540       0.02337340
H        7.29074000      14.66750000       5.90544000      -0.20167600      -0.03882660      -0.00040225
O        9.20386000       4.89371000       1.08772000       0.00476958       0.01116200       0.00956801
H       10.72240000       5.00844000       0.15130600       0.01369770       0.01137100      -0.01255520
H        9.19450000       3.15020000       1.48446000      -0.01000940      -0.02550690       0.00869713
O       19.81020000       6.03540000       7.82085000      -0.08281570      -0.05307830      -0.03702960
H       19.73520000       4.04753000       7.35567000       0.01855240       0.04009500       0.01631910
H       21.20970000       6.64949000       8.54673000       0.07134220       0.02034320       0.02703490
O        7.61930000      19.15130000      12.46020000      -0.00921951       0.20842200      -0.06759030
H        7.82127000      17.70370000      12.97970000       0.00617234      -0.23323500       0.07681970
H        9.19736000      19.85870000      13.13890000      -0.00026662       0.02549940      -0.01319290
O       22.05600000      21.13320000      19.94240000      -0.07737370       0.00522546       0.00291805
H       19.98160000      21.08970000      19.99250000       0.08485060      -0.00880116      -0.00059720
H       22.16178200       0.02233000      18.37770000       0.00325430      -0.00913153       0.01843900
O        3.10730000      12.79780000       4.42978000      -0.04772630      -0.06251560      -0.10929700
H        4.02287000      13.52120000       5.60669000       0.06469600       0.04459040       0.08920700
H        4.25769000      12.11220000       3.07210000      -0.01128070       0.00828608       0.02590860
O        9.37507000       5.37631000      16.81650000       0.06146690       0.00927714       0.03114230
H        9.74625000       3.46250000      17.41190000      -0.00571608       0.05630360      -0.01133330
H       10.96160000       6.63038000      17.39750000      -0.05448210      -0.06985250      -0.00812944
O       19.45850000      18.03290000       2.65583000      -0.06809840       0.00831536      -0.00091664
H       21.13520000      18.48120000       2.55263000       0.04695370       0.00125805       0.00236172
H       19.08660000      16.72620000       3.97417000       0.01653860       0.01840570      -0.01307760
O       17.25520000      19.59170000      18.50780000       0.05444020      -0.04963770      -0.06506000
H       17.12160000      19.73400000      16.63910000      -0.01105150       0.01682860       0.01248770
H       17.87120000      17.75700000      18.30260000      -0.01792900       0.03688960       0.03324120
O       19.20560000      14.32240000       5.36977000       0.02097790      -0.02711960       0.01702240
H       18.47360000      14.19860000       7.01351000      -0.03321160       0.00876602       0.01757320
H       20.82230000      13.62710000       5.79669000       0.01441140       0.00059769      -0.01542190
O       13.76860000      19.97490000       7.54854000      -0.00743159       0.07036210      -0.00425645
H       11.88520000      19.60060000       7.79199000       0.02816980       0.02636830      -0.00361220
H       14.16680000      22.08260000       7.31247000      -0.02830000      -0.07516730       0.01089850
O       12.05510000       7.57786000      12.31000000       0.00503271      -0.02791100      -0.08343570
H       11.50850000       8.89547000      11.14910000       0.00848745       0.00117739       0.01742760
H       12.08440000       7.92931000      13.96590000      -0.00292187       0.03287620       0.07202500
O        5.33482000      14.57280000       9.20445000      -0.01786060       0.01160930       0.00255750
H        4.27126000      15.95790000       9.94914000       0.02064670      -0.04362450      -0.00072844
H        5.53767000      12.89230000      10.05140000      -0.01153990       0.03169940      -0.00106436
O       14.26520000      16.62970000       4.18333000       0.07002440       0.10854100      -0.09468610
H       13.93540000      18.03950000       5.28144000       0.00631922       0.02788940       0.01214120
H       13.64970000      15.38910000       4.97146000      -0.06301420      -0.13959000       0.09045720
O       15.12890000       3.16142000       7.53756000      -0.02279620       0.04383260       0.03378660
H       14.72210000       4.27497000       6.07688000       0.00671167      -0.01452140       0.02703420
H       14.94090000       4.25395000       9.25016000       0.00779836      -0.04315280      -0.06690420
O       18.10280000      14.90250000      21.31100000      -0.06662730      -0.04577730      -0.06194620
H       19.42770000      13.87590000      20.76060000       0.04403450      -0.00541676      -0.01047710
H       18.51960000      16.15610000       0.22525900       0.03344120       0.05764640       0.05546730
O       18.22640000      11.12190000      16.81770000       0.02936930      -0.04212520       0.07819380
H       17.98020000      11.76230000      15.26550000      -0.00919945       0.01291920      -0.07432280
H       18.20130000       9.19075000      17.12480000       0.00945564       0.02716260      -0.01504870
O       11.64210000      12.63130000      10.17910000       0.25496400      -0.04429310       0.02703300
H       10.16490000      12.76110000       9.85840000      -0.27836000       0.02566070      -0.09191750
H       11.52040000      13.11040000      11.85510000       0.01507890       0.01635800       0.06769450
O        6.45248000       7.83086000      20.51670000      -0.00093612      -0.00307111      -0.05727000
H        7.41389000       7.00677000      19.04430000      -0.02015260       0.01317160       0.01657750
H        7.21798000       6.94092000      21.85540000       0.00832283      -0.02049730       0.02651320
O       17.60660000       0.72021300      13.29620000       0.01459060      -0.05189330      -0.07483430
H       18.00240000       0.10983000      11.33440000      -0.00916649      -0.01731380       0.07673560
H       17.45280000       2.32717000      12.59780000      -0.01665320       0.05290590       0.01319290
O       16.05640000       2.81376000      19.35800000      -0.06451660       0.09423410       0.17174300
H       16.63620000       1.60944000      18.53440000       0.07685110      -0.14782000      -0.13947700
H       16.18840000       1.72704000      21.05540000      -0.00870349       0.04931810      -0.02417010
O       16.83870000       5.42190000      12.06380000       0.03466070       0.00724520      -0.01462600
H       17.94380000       6.28486000      10.83800000      -0.00488493      -0.01462730      -0.00365657
H       15.40410000       6.43959000      12.04770000      -0.04045950       0.01977280       0.01007320
O       11.48430000      11.26010000       3.71671000       0.06404590       0.03084610       0.00482186
H       10.39050000      11.12390000       2.28233000       0.00046933      -0.00039625      -0.01752590
H       13.43080000      11.87980000       3.21919000      -0.05785110      -0.03281970      -0.00356840
O       15.78080000      22.01850000       1.91473000       0.03356280      -0.04736930      -0.00732195
H       16.91310000      20.37250000       2.23123000      -0.02687900       0.05221020      -0.00716155
H       14.61920000      21.36920000       0.59275500      -0.00446252      -0.00495645       0.01719630
O        1.31335000       1.80381000       1.89515000       0.28542000       0.08431540      -0.18309000
H        0.13718700       1.51692000       2.71683000      -0.29679500      -0.05393440       0.25096700
H        0.69289500       0.78400600       0.60467500       0.01347710      -0.03157390      -0.06689780
O        2.90160000      12.02880000      13.89760000      -0.00423379      -0.00156760      -0.01473020
H        3.53211000      10.56380000      13.02160000       0.01529600       0.00049796      -0.01154590
H        1.84253000      11.11830000      15.02020000      -0.00788023      -0.00225679       0.02588020
O       21.17220000       1.72123000      16.22360000       0.15502200      -0.01752520       0.05755880
H       20.62610000       3.21882000      16.68510000      -0.03519330       0.10547300       0.03055280
H       20.03740000       1.01401000      15.31060000      -0.11219300      -0.06784870      -0.09929450
O        7.75171000       4.86092000      11.69880000       0.01530280       0.04471000       0.04326870
H        5.94326000       4.74754000      12.52790000       0.06380590      -0.00076326      -0.00963489
H        9.30694000       5.87706000      12.91410000      -0.07402140      -0.05420940      -0.04353110
O        4.09770000      20.74710000       5.73507000       0.08379420       0.04748190      -0.03170620
H        3.87733000       0.23459900       4.86320000      -0.02535020      -0.01947410       0.01020430
H        6.12986000      21.04970000       5.58983000      -0.05733500      -0.03341690       0.01902310
O       18.30080000      20.11090000       9.25785000       0.16725900      -0.00929304       0.01356680
H       18.98350000      18.33290000       9.52467000       0.00132263       0.04131720       0.00434032
H       16.75210000      19.68790000       9.06301000      -0.17041400      -0.02968960      -0.02684130
O       13.14810000      19.70940000      20.36900000       0.03113720      -0.00138478       0.00679614
H       15.03740000      20.15030000      19.69690000      -0.06509860      -0.04491750       0.01217640
H       12.73670000      17.73340000      20.71670000       0.01482900       0.05428330      -0.00541123
O        8.61685000       2.93013000       6.84631000       0.02155300       0.00992914       0.04729760
H        9.72640000       4.47638000       6.65595000      -0.02059860      -0.02126830       0.00284546
H        8.51453000       2.81770000       8.80295000       0.00103099       0.00606178      -0.04313860
O       16.43050000      11.54720000       2.22542000       0.01444110       0.00414029       0.00502162
H       17.29670000      12.32810000       0.73020700      -0.02704780      -0.00063932       0.01672400
H       17.49920000      12.32260000       3.55575000      -0.01115700      -0.00574294      -0.00661393
O       22.12580000       6.22684000      12.74310000       0.09650740       0.02159830      -0.03698940
H       20.69440000       5.30816000      12.57020000      -0.04857800      -0.03776780       0.00010267
H        1.39878000       5.24414000      11.36970000      -0.04243960       0.01497710       0.05561900
O        4.24945000      15.80170000      20.13830000      -0.05262990      -0.04559700       0.03570480
H        2.91481000      14.28540000      20.27290000       0.03481770       0.04412860      -0.02308520
H        3.50443000      16.76080000      21.62650000       0.01494580       0.00160645      -0.01673780
O        9.15974000      21.93100000       2.80802000      -0.02144750       0.03731030       0.04364190
H        9.57870000       0.28498500       4.59109000      -0.00835436      -0.00288685      -0.02874250
H       10.35140000      20.71700000       2.43544000       0.03028520      -0.03035620      -0.01486040
O        5.28011000      20.35460000      17.15000000      -0.02734880      -0.03960960      -0.03865410
H        4.72087000      19.30990000      15.58710000       0.02443120       0.03553760       0.04370860
H        4.32385000      19.51600000      18.47700000       0.00383939       0.01035890      -0.00150727
O        6.18750000       9.62672000      10.62930000       0.20219200       0.02331080       0.12521900
H        5.12172000       9.11224000       9.59598000      -0.15753900      -0.06234490      -0.14080300
H        7.46142000       8.02058000      10.44390000      -0.04194630       0.03490300       0.02806170
