192
TotEnergy=-1102.37889000 cutoff=-1.00000000 nneightol=1.20000000 pbc="T T T" Lattice="22.56527000       0.00000000       0.00000000      -0.00000100      22.56527000       0.00000000      -0.00000100      -0.00000100      22.56527000" Properties=species:S:1:pos:R:3:force:R:3:Z:I:1
O               7.24035000      4.89809000      1.31038000     -0.01335670     -0.02371430     -0.07141540       8
H               6.57373000      4.19250000     22.01740000      0.02419240      0.01220960      0.04643300       1
H               6.09726000      4.23185000      2.52964000     -0.00057686     -0.01565000      0.01210520       1
O               0.31616300     21.17690000      0.54880100     -0.00231097      0.05586180     -0.06886200       8
H              22.20070000     20.62730000      2.15233000     -0.01655600      0.00192251      0.01217860       1
H              21.79200000      0.03168000     -0.19140800      0.02632550     -0.04375870      0.03023620       1
O              13.59010000     17.25320000     18.78430000      0.04893340     -0.28540200     -0.19165900       8
H              13.35850000     18.34610000     19.79720000     -0.04952510      0.20615900      0.22027200       1
H              13.58010000     15.32380000     19.44500000     -0.00916148      0.06668730     -0.01047730       1
O              17.07240000      5.63771000      0.86608400      0.07391230      0.02249820      0.02275560       8
H              15.37300000      5.18272000      0.54320500     -0.02524320     -0.00364676     -0.02606480       1
H              18.50270000      5.22459000     22.28060000     -0.03379450     -0.01048430      0.00825198       1
O              20.17170000     10.51070000     19.13130000     -0.02050120      0.04166160     -0.00184399       8
H              19.68910000     11.70420000     17.56160000      0.01615260     -0.00581170      0.04650950       1
H              20.71310000     11.76540000     20.49700000     -0.00116498     -0.03663240     -0.03415290       1
O               3.02379000     15.09740000     22.18950000      0.05186070     -0.00037791      0.00661275       8
H               4.01712000     14.50550000     20.72320000     -0.01529420      0.00390630      0.00111711       1
H               4.41283000     14.93760000      0.94479700     -0.02247630      0.01430610     -0.01250890       1
O               4.24955000     15.75270000     12.32440000      0.03332030      0.03809180      0.02184890       8
H               6.60976000     15.74270000     12.53090000     -0.10010400     -0.00570690     -0.01149270       1
H               3.14478000     17.14700000     13.20170000      0.05634980     -0.03478300     -0.02137070       1
O               4.64072000      6.97758000     11.36360000     -0.00103739     -0.00764006     -0.03410680       8
H               2.85674000      6.80154000     11.76070000      0.00112552      0.00838137     -0.00627472       1
H               4.92511000      6.33710000      9.61057000     -0.01405620      0.00296612      0.00701990       1
O               5.25124000      9.14893000      0.82670400     -0.02062800      0.07996410      0.01323420       8
H               6.77297000     10.46170000      0.59608900     -0.02912490     -0.04793600     -0.02028000       1
H               5.64709000      7.40675000      0.96189600      0.03865030     -0.01504260      0.01037390       1
O               8.61334000     11.99170000      5.49697000     -0.02220140     -0.03908870      0.03475910       8
H               7.57935000     10.80230000      6.58638000      0.02192800      0.02512510     -0.03534110       1
H               7.31589000     12.93700000      4.47874000      0.03242010     -0.01237570      0.01584020       1
O               5.93000000      3.35425000     19.04700000      0.06231840     -0.09963790     -0.03349310       8
H               5.95318000      1.07867000     18.91760000     -0.00306546      0.08479790      0.02278220       1
H               7.59447000      3.70966000     18.04060000     -0.05199420      0.00157746      0.02987340       1
O              16.36580000      2.95503000      9.44943000     -0.00058316     -0.00497783      0.01521090       8
H              15.65660000      3.44296000     11.62930000      0.01025180      0.00619062     -0.04273520       1
H              17.18020000      1.30826000      9.24783000     -0.00703558      0.01878410      0.01311810       1
O              21.49490000     21.55800000     17.42200000      0.06023670     -0.01679950      0.03095230       8
H              21.41330000      0.56093700     18.40880000      0.00493806     -0.01577960     -0.00856834       1
H              22.61880000     20.23360000     18.44840000     -0.05730950      0.04002660     -0.02259890       1
O              19.84670000     14.40510000     16.21620000      0.03705470     -0.01608290     -0.05489220       8
H              20.81760000     13.81350000     14.50570000     -0.01757820      0.02119410      0.04524750       1
H              21.15900000     15.47890000     17.08530000     -0.03447270     -0.01094500     -0.00377469       1
O              13.49330000     20.90980000     -0.04499200     -0.11554500      0.02726540     -0.22662100       8
H              11.72360000     20.98380000      0.49031700     -0.00710622     -0.00286021     -0.01524310       1
H              14.11830000     20.74530000      1.34520000      0.12948600     -0.02944160      0.23379500       1
O               2.77133000     16.89130000      6.62027000     -0.03072820     -0.05124710      0.02987920       8
H               3.22513000     15.95570000      8.21939000     -0.00174856      0.02049290     -0.02184890       1
H               1.09107000     16.00480000      6.24206000      0.04588550      0.02295720      0.00741071       1
O               4.11165000      9.95803000      5.73079000      0.04080720     -0.00129785     -0.05387610       8
H               4.13138000     10.50560000      3.88530000      0.00193702     -0.02310590      0.03263160       1
H               2.60798000     10.46420000      6.42258000     -0.05489540      0.01689840      0.02120740       1
O              15.67280000     18.07780000      8.58288000     -0.01289080     -0.06775140     -0.05917400       8
H              14.14690000     16.85730000      8.81506000      0.04880570      0.04148630     -0.00435094       1
H              16.65280000     17.13140000      7.02739000     -0.03011350      0.01976820      0.07732660       1
O               3.34400000      7.01172000     19.18350000     -0.03332660     -0.02109960     -0.01788270       8
H               3.53303000      7.39613000     20.94570000      0.00668377      0.00865414     -0.00428709       1
H               3.01710000      5.16500000     18.96030000      0.01997520      0.03256700      0.00909480       1
O              14.96440000      2.24682000     19.21720000      0.01697840      0.00633644      0.00915129       8
H              15.30310000      3.74601000     20.36200000     -0.02562500     -0.05489380     -0.02917040       1
H              14.43840000      0.65350100     20.09400000      0.01157200      0.03814390      0.00598476       1
O               3.20242000     21.53860000     13.42850000     -0.02315460     -0.01050630      0.00249367       8
H               2.36825000     21.14800000     11.72560000      0.00017580      0.02210750      0.04252810       1
H               2.00465000     21.94340000     14.88220000      0.01225470     -0.00952795     -0.04210740       1
O              12.53560000      5.79993000     21.74450000     -0.00003648      0.04131100      0.02134080       8
H              10.95870000      5.56319000      0.05387100     -0.00728317      0.00044000     -0.00093180       1
H              12.76100000      7.67890000     21.37760000     -0.01119270     -0.04995130     -0.00272981       1
O              14.57020000     20.48740000     15.37910000     -0.01285810      0.03183690     -0.00221887       8
H              14.20270000     22.16480000     16.16150000      0.00118570     -0.03294970     -0.00881173       1
H              14.29950000     19.11930000     16.61860000      0.00900799      0.01255050     -0.01125130       1
O               9.30326000     22.38920000      8.98015000     -0.04020860      0.02050940      0.06766510       8
H              10.11290000      1.19863000      8.08162000     -0.00742269      0.00753460      0.00789746       1
H               8.43302000      0.70090600     10.68810000      0.03636110     -0.02094850     -0.07633100       1
O               5.94744000     13.57270000     18.10770000      0.01878660      0.08057680     -0.08044720       8
H               5.43285000     12.19210000     16.88590000      0.01830710      0.02767220      0.01189040       1
H               7.36178000     15.34580000     17.04320000     -0.06301870     -0.05785820      0.03248750       1
O              10.43080000      3.27697000     15.40450000     -0.04461910     -0.02670210     -0.03487990       8
H               8.44106000      3.32545000     14.58030000      0.05896380      0.00455349      0.02160460       1
H              10.89950000      4.53133000     16.58910000     -0.01478090      0.02066000      0.01393340       1
O              17.10420000      8.48058000      8.31430000      0.03020310     -0.02297830     -0.04654560       8
H              17.51340000      6.62441000      7.94606000     -0.01787050      0.03748150      0.02248440       1
H              17.91210000      9.40886000      6.82883000     -0.02405400     -0.01898560      0.02881910       1
O               4.17039000      0.31853500      3.46160000     -0.01319890      0.04553840      0.09575540       8
H               2.31733000      0.18296400      3.14989000      0.03079660     -0.00108088      0.00089783       1
H               4.20687000      1.32884000      5.68322000     -0.00063588     -0.04090330     -0.10010200       1
O               0.09019300      8.39647000     15.39050000      0.00079481     -0.01535580      0.07033400       8
H               1.58147000      7.60128000     16.59530000     -0.04929440      0.04110540     -0.03388560       1
H              21.19550000      8.74440000     16.85590000      0.06509670     -0.00940445     -0.04863200       1
O              12.48920000     11.67190000     14.48350000      0.01467420      0.03115140     -0.05458350       8
H              13.28530000     12.94930000     12.51970000     -0.01201940     -0.04917650      0.06942940       1
H              11.57470000     10.26620000     13.68090000      0.01044770      0.02788150      0.01257680       1
O               5.30918000     21.14340000     20.59090000     -0.04488370     -0.00661451     -0.03252720       8
H               3.48312000     21.59110000     21.10980000      0.03982400     -0.02245040     -0.00354002       1
H               5.28761000     19.88720000     19.16830000     -0.00231870      0.02062700      0.03229160       1
O               0.21994400     12.76490000     12.55320000      0.05166100     -0.03300670      0.02133330       8
H               0.43708700     10.96200000     13.71590000     -0.00107837      0.04433560     -0.02895190       1
H               2.03168000     13.68960000     12.46200000     -0.04261600     -0.02735750      0.01189780       1
O              10.21930000     18.76510000     12.08930000      0.08160310     -0.03722840      0.09494640       8
H               9.69633000     19.66660000     10.77370000     -0.02480760      0.06628200     -0.08212940       1
H              11.95250000     19.66240000     12.66740000     -0.05340850     -0.03382860     -0.01464330       1
O              19.15130000     15.24080000      5.71107000     -0.02992310      0.00648109     -0.06584600       8
H              18.00110000     15.68200000      4.07650000      0.03905260     -0.01259080      0.04690690       1
H              19.18420000     13.35460000      5.69973000      0.00974238      0.02740170      0.00460373       1
O              22.17110000      3.64863000      3.09968000     -0.01440580      0.07053120      0.00591799       8
H               0.69763500      4.91442000      4.00550000     -0.02001580     -0.02865800     -0.01196510       1
H              20.54170000      4.63895000      2.71861000      0.03992420     -0.03297930      0.01293910       1
O               8.81715000     20.07700000      1.39292000      0.11733200     -0.02911940      0.16930700       8
H               7.74133000     20.46820000      0.31336100     -0.14263300      0.03774180     -0.17191100       1
H               8.06821000     21.26390000      2.61004000      0.01381680     -0.01116460      0.01125050       1
O              14.83700000      8.76944000     18.84540000      0.02541920      0.01682400     -0.00067873       8
H              16.65550000      8.20018000     19.13680000     -0.04032510      0.03491720     -0.02366950       1
H              14.41780000     10.14670000     17.56020000      0.01872420     -0.03575690      0.00829405       1
O              15.68520000     13.48140000     11.05080000      0.07121180     -0.06731690      0.04777310       8
H              15.73620000     11.98460000      9.90976000     -0.00250656      0.02270160      0.01522550       1
H              17.28030000     12.66080000     12.56500000     -0.07556200      0.04497150     -0.06436230       1
O               8.71963000     18.85130000     17.10780000      0.03190350     -0.02731730     -0.03532540       8
H               8.49244000     19.67250000     15.36280000      0.01522530     -0.02797210      0.04116290       1
H              10.47460000     17.89170000     17.08830000     -0.05136500      0.03734420     -0.00188303       1
O              13.39420000     12.33930000      4.07051000      0.22777300      0.02233270     -0.03242710       8
H              14.54010000     10.83710000      4.08019000     -0.03571840      0.02956130      0.00269465       1
H              11.84410000     12.01970000      4.22820000     -0.19087600     -0.05095850      0.03085380       1
O              22.06180000     11.22050000      7.62630000     -0.02786080     -0.03484520      0.01910590       8
H              22.79480000     12.11980000      9.15990000     -0.03214200     -0.03048930     -0.00653135       1
H              20.81350000      9.70173000      8.11582000      0.05707720      0.06348050      0.00248778       1
O              14.18500000      3.00645000      4.95065000     -0.04314570      0.00955060     -0.07702190       8
H              15.22400000      3.43677000      6.25730000      0.05179090      0.01177570      0.06522280       1
H              14.29280000      4.30397000      3.62839000      0.00345518     -0.02085370      0.01374640       1
O              12.96230000     12.67150000     21.46730000      0.07286740     -0.01733730      0.02033070       8
H              13.26910000     12.83020000      0.81948500     -0.00715036     -0.00313035     -0.03150810       1
H              14.31750000     11.34170000     20.82490000     -0.03717760      0.02612070      0.01294860       1
O              14.64190000      4.84908000     13.35460000      0.08252280      0.04557020      0.03519530       8
H              15.95690000      5.46528000     15.06990000     -0.03192470     -0.03059780     -0.05436390       1
H              13.08970000      4.22450000     13.93530000     -0.04378890     -0.02626200      0.02225470       1
O              19.00080000      0.72843200     13.76350000     -0.02203270     -0.06368520      0.00825958       8
H              19.81270000     -0.89200600     14.57610000     -0.02220450      0.05677980     -0.01641030       1
H              17.17790000      0.14878800     13.67880000      0.04240630      0.01036940      0.00181439       1
O               8.68963000     13.91470000     10.74860000      0.02107990      0.06668820      0.00028181       8
H               9.33652000     15.94640000     10.57530000     -0.00291914     -0.08672750     -0.00441811       1
H               8.97080000     12.57480000      9.45390000      0.00242264      0.04331840      0.00962488       1
O              21.01290000     17.53420000     19.70650000     -0.03967910     -0.03308150      0.06143300       8
H              18.55340000     17.59100000     20.94490000      0.11434800     -0.00952624     -0.03479890       1
H              22.14070000     16.50430000     20.89020000     -0.03204100      0.03079510     -0.01945860       1
O              18.62150000      5.03429000     16.54240000     -0.01025460     -0.05362110     -0.01518310       8
H              18.03410000      3.36869000     17.26080000     -0.00751542      0.02858630      0.00471693       1
H              19.44120000      4.04134000     15.13110000     -0.00185272      0.02486020      0.00790288       1
O              10.38120000      4.60580000      7.38284000      0.03003340      0.02580040     -0.00060820       8
H              10.37750000      5.77919000      8.92928000      0.02032600     -0.02371570     -0.03526420       1
H              12.23330000      4.38352000      6.41435000     -0.07063830      0.00591378      0.03844550       1
O               6.32328000      2.77439000     12.89140000     -0.03290710     -0.03249760     -0.01775560       8
H               5.04327000      1.27717000     12.73300000      0.02579170      0.02519170      0.02078810       1
H               5.33513000      4.23085000     12.23520000      0.02209310     -0.00807242      0.01346840       1
O               9.06605000      8.09418000     17.38040000     -0.04648650      0.04634360     -0.03124450       8
H               8.21924000      9.14234000     15.59990000      0.01930030     -0.04598040      0.06097790       1
H               8.14748000      9.11092000     18.80630000      0.03385500     -0.02755890     -0.03498650       1
O               6.61179000     15.22110000      3.18827000     -0.02320930      0.10095500      0.01699270       8
H               5.73825000     16.15510000      4.74046000      0.01544710     -0.03184100     -0.04973630       1
H               7.50495000     16.77090000      2.40690000     -0.01165980     -0.03585120      0.01384270       1
O              11.58720000      8.48170000     10.50260000      0.07653020     -0.03184780      0.04197970       8
H              13.19720000      8.71723000      9.41528000     -0.04418840     -0.01049650      0.03351830       1
H              12.54700000      7.59633000     12.39470000     -0.02975280      0.02562080     -0.08484090       1
O              21.53680000      3.67094000     20.60750000      0.04659270      0.05870320      0.05761470       8
H              20.82420000      5.16387000     19.70090000      0.02403630     -0.01982880      0.00436540       1
H               0.66336100      4.57895000     22.39100000     -0.07660930     -0.04377570     -0.06635730       1
O               5.29643000      5.16745000      6.25417000      0.07641610      0.02857900      0.01908770       8
H               4.29232000      6.60360000      5.73142000      0.00891423      0.00847096      0.00168662       1
H               7.43961000      6.01724000      6.38751000     -0.07387610     -0.05026690     -0.01046080       1
O              17.77890000     16.15440000      0.83478300     -0.00286856     -0.05633190     -0.01262230       8
H              16.24810000     16.44300000     -0.21956500      0.00733909     -0.02171580      0.02441880       1
H              18.41420000     14.20140000      0.74834300     -0.02940470      0.07407560     -0.01127600       1
O               8.47040000     11.40910000     20.78880000      0.06261960      0.03398770      0.02867700       8
H               7.82765000     12.96830000     19.57200000      0.01280870     -0.05785940      0.03507270       1
H              10.50200000     11.53840000     21.09960000     -0.07228120      0.00282996     -0.01383490       1
O              16.08010000     20.75810000      4.48462000     -0.00791323      0.01199230      0.01272280       8
H              15.90370000     19.89200000      6.15602000     -0.01704170      0.01474210     -0.01018520       1
H              15.29330000     22.45160000      4.71070000      0.01250470     -0.01976060     -0.00247174       1
O              21.14880000     20.33660000      4.67790000     -0.04601200     -0.09829360      0.03436090       8
H              21.37460000     17.30370000      4.67089000     -0.02997320      0.08039870      0.00671881       1
H              19.13020000     20.33110000      4.80883000      0.05584070      0.01061520     -0.01267940       1
O              22.56640000      4.27185000      9.73504000     -0.01530520     -0.07047620     -0.09639460       8
H              21.14290000      4.61461000      8.50225000      0.02437280      0.00148147      0.04004620       1
H               0.50894100      2.46845000      8.61795000     -0.00493535      0.07186010      0.06182300       1
O              18.63750000     10.30890000      3.70709000     -0.13795900     -0.03904230      0.04691980       8
H              20.10920000     10.16080000      3.04579000      0.16035000      0.02460840     -0.06194020       1
H              18.28150000      8.52348000      3.29180000     -0.02828350      0.01223570      0.00065300       1
O               1.91867000     22.05920000      8.56822000      0.00077036     -0.08243960     -0.02536150       8
H               3.23373000     20.64410000      8.34322000     -0.02332800      0.04335520     -0.00131703       1
H               0.54083800     21.06450000      7.58132000      0.01917900      0.02971110      0.01152230       1
O               0.22336900     11.71050000      0.86226500     -0.00871087     -0.06767440      0.00924556       8
H               1.20640000     10.12410000      0.49901900     -0.01752860      0.03205510      0.00355342       1
H               1.56749000     12.93830000      0.75732800      0.00681758      0.02098660     -0.01121960       1
O               6.68447000     10.40410000     13.71550000     -0.00657843     -0.02405820     -0.04580340       8
H               7.87239000     11.78480000     13.55060000     -0.00359476     -0.00399261     -0.01809810       1
H               6.26413000      9.18073000     11.81410000      0.00335310      0.03899720      0.08053970       1
