192
TotEnergy=-1103.27672000 cutoff=-1.00000000 nneightol=1.20000000 pbc="T T T" Lattice="24.14503000       0.00000000       0.00000000      -0.00000100      24.14503000       0.00000000      -0.00000100      -0.00000100      24.14503000" Properties=species:S:1:pos:R:3:force:R:3:Z:I:1
O              22.96530000     -3.13953000    -26.53020000     -0.08738950      0.00634705     -0.04601130       8
H              21.33900000     -3.27450000    -27.78610000      0.05467050      0.01772070      0.04316140       1
H              23.83290000     -4.51970000    -27.24300000      0.03164450     -0.02583510     -0.00063965       1
O              47.61840000     46.05610000      2.79842000     -0.00630213     -0.00407726      0.01343960       8
H              47.70090000     47.78930000      2.38188000      0.00866404      0.03628790      0.02058980       1
H              47.35830000     45.64030000      1.08957000     -0.00581295     -0.03414350     -0.02768020       1
O               9.04191000      2.92830000     12.67190000      0.03208290     -0.01552660      0.00027162       8
H              10.87660000      3.20272000     12.43720000     -0.02517910      0.00216908      0.00385949       1
H               8.93682000      1.24389000     13.44790000     -0.00187057      0.00557444      0.00154782       1
O              -4.64006000    -10.90140000     -0.14391700      0.02687850      0.06540100     -0.02119980       8
H              -3.51989000    -10.96280000     -1.88369000     -0.03788940      0.00777981      0.05654140       1
H              -4.83825000     -8.98417000      0.62986100      0.00715230     -0.06779550     -0.03917820       1
O               6.57642000     31.51220000     16.95890000     -0.01645040     -0.01131610      0.10857300       8
H               7.39900000     32.57900000     18.45930000     -0.00806450     -0.00637186     -0.05457090       1
H               7.02066000     31.84130000     15.34000000      0.02775910      0.02314860     -0.05772740       1
O              -7.66929000      9.54569000      8.31797000      0.00615399     -0.08992360      0.00187304       8
H              -8.19972000      7.56357000      9.07289000      0.01340280      0.08172480     -0.03463010       1
H              -6.65440000      9.14201000      6.73309000     -0.02594880      0.00887225      0.03508800       1
O              44.77880000     24.37780000     13.03150000     -0.06500290     -0.05244280     -0.04327640       8
H              46.39450000     24.53330000     12.18010000     -0.00170491      0.00357835      0.00236773       1
H              43.47190000     23.20280000     11.79280000      0.05491250      0.04780210      0.03652170       1
O               1.37010000    -30.24100000     10.13370000     -0.00090807      0.17626300     -0.04277850       8
H               1.26952000    -31.80460000     10.46220000      0.00257106     -0.18296300      0.04338950       1
H               0.04614800    -30.01490000      8.88727000     -0.00030037      0.01421900      0.00024224       1
O              30.72410000    -32.84870000     22.32620000      0.03729000      0.01760730     -0.02252590       8
H              32.20520000    -31.62420000     21.85670000     -0.03546740     -0.03607250      0.00703037       1
H              31.16000000    -34.54700000     21.72430000      0.00104444      0.01800500      0.00117131       1
O               9.92831000    -28.90780000    -26.24220000      0.05854270     -0.00567911     -0.07501210       8
H              11.85670000    -28.60340000    -26.61010000     -0.04767800     -0.00534674      0.01600360       1
H               9.63178000    -28.86420000    -24.53170000      0.00507347      0.00867837      0.06246010       1
O             -10.14480000      0.97096700      7.39965000     -0.04527630      0.00908533     -0.05013000       8
H             -12.00910000      0.57932700      7.25373000      0.02695800     -0.00695955      0.01957210       1
H             -10.08120000      1.56804000      5.57938000      0.01335710     -0.00435040      0.02093350       1
O             -10.19950000     27.03770000     50.84610000     -0.01051470     -0.01613630     -0.05031840       8
H             -11.59730000     27.32880000     49.64510000     -0.01903440      0.01294730      0.03004820       1
H              -9.37726000     26.10460000     49.41280000      0.01909280      0.00333600      0.02175630       1
O              13.41590000    -29.35230000    -11.16330000     -0.00475202      0.02995470      0.01666260       8
H              13.45050000    -30.72770000    -12.28280000     -0.00328568     -0.01628590     -0.02010230       1
H              11.87520000    -28.32040000    -11.37340000      0.00940547     -0.01651890      0.00792555       1
O              25.90560000     13.39180000     36.19550000      0.07403630     -0.02547260      0.03718280       8
H              26.44260000     11.84730000     35.21380000     -0.01855170      0.02264490      0.00954090       1
H              27.53970000     13.54230000     37.52040000     -0.05985590      0.00343156     -0.04355410       1
O               0.91743700      2.80743000      2.00094000      0.02381500      0.00759766      0.10840800       8
H               2.54044000      2.34752000      3.11046000     -0.04555480      0.01731650     -0.03645070       1
H               1.26556000      2.42530000      0.37306300      0.02559160     -0.02185890     -0.07149570       1
O             -27.14530000     19.46730000     31.11930000      0.16041500     -0.08691290     -0.12296700       8
H             -26.69890000     20.66790000     29.84220000      0.00589758      0.00584461     -0.00651218       1
H             -28.30240000     20.00960000     32.02610000     -0.16077000      0.07710360      0.12339100       1
O             -33.57850000     11.12930000     24.94100000     -0.01080030      0.00781551     -0.00031636       8
H             -34.53130000     11.26820000     23.40140000     -0.00434704     -0.00873003     -0.00192007       1
H             -32.04900000     11.97890000     24.45110000      0.01975590      0.00117352     -0.00001956       1
O             -17.60900000     63.93150000    -21.00560000     -0.09731600      0.08923810      0.49114100       8
H             -17.43880000     62.41970000    -19.74590000     -0.00105528      0.04421200     -0.04185080       1
H             -17.26750000     63.56580000    -22.33060000      0.10261500     -0.13685000     -0.44507600       1
O              68.35220000     20.74590000     41.29300000      0.01206900     -0.08050080      0.10871400       8
H              68.66440000     21.84070000     40.11450000      0.01512160      0.09453380     -0.09992120       1
H              66.83370000     19.80410000     41.17000000     -0.02634930     -0.01044520     -0.00871698       1
O              57.09400000    -20.22740000      0.63654700     -0.00054365     -0.00922001      0.01448760       8
H              56.04740000    -20.54400000      2.17063000      0.00561888     -0.00228658     -0.03490210       1
H              56.38350000    -20.51160000     -1.20076000      0.00347921     -0.00089899      0.03419710       1
O              30.56800000     19.76070000    -13.75380000     -0.02139680     -0.08124230     -0.05081690       8
H              31.19800000     17.90310000    -14.38730000      0.01844200      0.04188130      0.02975550       1
H              28.84900000     19.14900000    -14.28850000      0.00320936      0.02894570      0.01465010       1
O             -14.89970000      8.35611000     59.24740000      0.05133640     -0.02665650     -0.05924120       8
H             -15.37730000      8.53164000     57.34880000      0.00604121      0.00371750      0.05474540       1
H             -13.17270000      7.37848000     59.09370000     -0.05362620      0.02896530      0.00488938       1
O               7.50780000      3.37826000     -3.77373000      0.00919240      0.03039230     -0.04819020       8
H               7.45884000      1.68261000     -4.51053000      0.00187804      0.01167660      0.00025087       1
H               8.05871000      4.74826000     -5.09260000     -0.02060210     -0.05077730      0.03070540       1
O              44.19960000      4.49764000     23.82420000     -0.08830350     -0.01475230     -0.07710230       8
H              42.83740000      5.33891000     24.67900000      0.01257390      0.00603677      0.01727980       1
H              45.68000000      4.56418000     24.58810000      0.08070390      0.00804810      0.05695830       1
O              -3.06558000     59.57840000     28.46750000      0.01013320      0.04471370     -0.04538800       8
H              -3.31621000     60.41040000     26.62940000     -0.00192881     -0.03391340      0.04700930       1
H              -1.89949000     60.87710000     29.17160000     -0.00963991     -0.02323330      0.00021442       1
O               8.67585000     39.29670000      9.64547000     -0.07836630     -0.00696520      0.00198692       8
H               7.53252000     37.85400000      8.92677000      0.06426680      0.03578650      0.01147430       1
H              10.46850000     39.49040000      9.46661000      0.00978525     -0.02983610     -0.02027280       1
O             -17.58000000     21.99080000     19.63510000     -0.05454220     -0.06457910      0.01442820       8
H             -19.21890000     20.57170000     19.25050000      0.06774200      0.05299380      0.01669210       1
H             -16.44370000     21.11250000     20.99170000     -0.02177330      0.01547880     -0.04296560       1
O              32.28900000     32.68910000     50.31970000      0.06356810      0.07917930      0.05008110       8
H              32.81380000     31.11260000     49.97380000      0.02546020     -0.08075630     -0.01966690       1
H              30.77490000     32.92820000     49.63070000     -0.08719790      0.01429380     -0.03360490       1
O              13.23220000     33.72560000     19.25030000      0.02544950      0.02986350     -0.04667660       8
H              14.02080000     34.21610000     17.50290000     -0.02182080     -0.01530450      0.05717630       1
H              13.27500000     31.93500000     19.42750000      0.00815362     -0.01871090     -0.00712958       1
O               2.17473000    -23.45840000     21.60590000     -0.01142850     -0.04362160     -0.02217890       8
H               1.09796000    -25.00230000     21.17040000     -0.00270275      0.03730980      0.01565460       1
H               3.72752000    -24.39920000     21.32740000      0.01465860      0.01685600      0.00136622       1
O               1.39833000     13.95710000      5.71161000      0.02558680     -0.11925500      0.03279910       8
H               2.48001000     13.06400000      4.51195000     -0.01486480      0.02470710     -0.00145409       1
H               0.99065600     15.51690000      5.32133000     -0.01182010      0.10109100     -0.03870200       1
O               1.39359000      1.54329000     13.28380000     -0.03031750      0.02481930      0.07797310       8
H               1.66832000     -0.17408600     13.98730000      0.00951958      0.01517240     -0.00841760       1
H               0.81688200      2.52823000     15.17090000      0.03440450     -0.02617240     -0.08145300       1
O             -34.22280000     52.30680000    -29.63980000     -0.01003620      0.00362220      0.03629440       8
H             -33.33890000     52.38940000    -31.17350000      0.01982460     -0.00320114     -0.02155110       1
H             -33.10730000     51.54430000    -28.37930000     -0.01242280      0.00065306     -0.01488230       1
O               5.37914000     50.93140000    -19.13350000      0.02728530     -0.03563780      0.02205680       8
H               4.83624000     51.54330000    -17.52450000     -0.01252140      0.02152950      0.00687694       1
H               6.54124000     49.64190000    -18.28060000     -0.01376000      0.01214730     -0.02265910       1
O             -35.51930000     39.31040000      3.42874000     -0.03345380      0.03646790      0.01126000       8
H             -34.94880000     37.70250000      2.51950000     -0.03590020      0.01974400      0.00705974       1
H             -37.34760000     40.26950000      3.48974000      0.07353590     -0.06034370     -0.01593350       1
O              19.41170000     36.13720000     11.90070000      0.04291910      0.01705190      0.00217083       8
H              21.23600000     36.51790000     11.61440000     -0.03315610     -0.00947296      0.00309421       1
H              18.79080000     35.08490000     10.55850000     -0.00431035     -0.00358148     -0.01271430       1
O             -17.18000000    -13.28580000      6.47286000     -0.13153200      0.10601100      0.21517000       8
H             -16.85800000    -13.90860000      5.07146000      0.04207830     -0.09323880     -0.19808600       1
H             -19.33970000    -13.33800000      6.84091000      0.08726230     -0.01810080     -0.00414954       1
O             -46.41610000      4.69568000     17.35160000     -0.02477750     -0.02389380      0.03316170       8
H             -46.33810000      3.55974000     18.85780000      0.00554561      0.01286790     -0.01810130       1
H             -44.79510000      5.46159000     17.19790000      0.01983730      0.00532788     -0.00418173       1
O             -21.42880000    -15.07100000     33.20050000     -0.02055890     -0.06514800     -0.04604520       8
H             -20.69900000    -16.83330000     33.68210000      0.01537300      0.03978830      0.02179910       1
H             -22.37910000    -16.11960000     31.84540000      0.00353240      0.04925240      0.01560700       1
O              13.72550000     14.41550000     32.80480000     -0.00110692     -0.00079210     -0.00357587       8
H              14.10940000     12.57820000     33.11290000     -0.00179718      0.03544980     -0.02616470       1
H              13.65240000     14.97030000     30.97090000      0.00320673     -0.03125650      0.02980680       1
O             -21.21520000     -3.04713000     39.02220000     -0.01041090     -0.00758250     -0.03398090       8
H             -22.37100000     -4.09706000     39.92480000      0.00270925     -0.00097320      0.00764411       1
H             -21.51580000     -3.60885000     37.25650000      0.00818038      0.00317978      0.02309150       1
O              38.21560000      5.10795000     34.43190000     -0.02229180      0.11842600      0.09959680       8
H              38.34900000      3.98868000     33.21650000      0.02104540     -0.09481400     -0.07288530       1
H              39.22710000      5.06688000     35.99240000      0.00542723     -0.02199700     -0.01708410       1
O              -7.98837000    -35.78000000     -8.60551000      0.00550143      0.01835540     -0.02749460       8
H              -6.92630000    -35.27600000    -10.08450000      0.02505590     -0.01373030      0.02561910       1
H              -9.35898000    -35.88010000     -9.77311000     -0.03625860     -0.00519449      0.01114040       1
O              52.97320000    -19.06850000    -13.55380000     -0.01179740     -0.07500830      0.04995040       8
H              54.69630000    -19.45710000    -12.76890000     -0.03599100      0.01022120     -0.01833730       1
H              51.68930000    -20.38820000    -12.60220000      0.04449820      0.04076180     -0.02857460       1
O              17.12640000     -2.38410000      9.52667000      0.06469150      0.04336590     -0.07181830       8
H              16.31290000     -1.03020000      8.47459000     -0.00467836     -0.02119130      0.02380330       1
H              16.19820000     -2.89426000     10.83990000     -0.06251170     -0.02560100      0.06030380       1
O             -33.00070000     -3.95139000     45.75850000     -0.01773170      0.07265220      0.25570700       8
H             -32.70780000     -4.91523000     44.58970000      0.04456130     -0.14282600     -0.21294700       1
H             -32.19950000     -5.33832000     47.20370000     -0.03520440      0.06345310     -0.03380150       1
O               5.30366000     -9.51399000     -8.24785000     -0.06738130     -0.01812460      0.02840140       8
H               4.38548000    -10.60870000     -6.90051000      0.01571100      0.02582960     -0.02847500       1
H               6.88911000    -10.19330000     -8.04357000      0.05093320     -0.01550040     -0.00313128       1
O              23.12600000     16.82510000     16.32550000      0.01957560     -0.01471640     -0.03857510       8
H              21.93960000     18.18990000     16.41530000     -0.01729640      0.01760940      0.01203360       1
H              23.56270000     16.82010000     14.50970000     -0.00130311     -0.01148830      0.02013500       1
O               8.86214000     21.62880000     -9.91752000     -0.03480500     -0.00558017     -0.07040370       8
H               8.00622000     21.61260000     -8.37146000     -0.01155940     -0.00155373      0.03369930       1
H               7.38823000     21.02500000    -11.24070000      0.05170950      0.01259700      0.04225000       1
O              24.51520000     55.77160000     28.59830000     -0.03911380      0.02798770     -0.01801120       8
H              22.94140000     57.05510000     28.48390000      0.03775900     -0.03059900      0.00270649       1
H              24.18160000     54.31800000     27.49480000      0.00461163      0.00781809      0.01406540       1
O              -7.11828000      6.74088000      3.43849000      0.03671590     -0.00848781      0.01540160       8
H              -7.83437000      8.05669000      2.55816000     -0.01398830      0.05297530     -0.02070190       1
H              -8.34467000      5.52528000      3.05130000     -0.02381490     -0.03752820      0.00591502       1
O              16.30420000    -30.72500000     17.34850000     -0.04932130     -0.03498760     -0.02972950       8
H              14.76600000    -30.36470000     16.16400000      0.04344190     -0.00523695      0.02605750       1
H              16.36240000    -32.65250000     17.30360000      0.00086087      0.03608430     -0.00446142       1
O               2.43018000     18.02290000     43.77870000     -0.00076365     -0.03856610     -0.03040230       8
H               3.77959000     16.76850000     44.34320000     -0.03029320      0.02254330     -0.01022770       1
H               1.29540000     17.25880000     42.21990000      0.03943780      0.01852460      0.05135040       1
O              41.25280000     41.90640000      1.81277000     -0.00550842     -0.01759780      0.01124500       8
H              42.11710000     43.04980000      2.90681000      0.00738977      0.00569777      0.00354125       1
H              40.09180000     40.96310000      2.95357000      0.00031699      0.01043220     -0.01767260       1
O              22.10360000     12.47320000    -28.82990000      0.00766042     -0.10441200      0.03833950       8
H              22.30470000     10.54290000    -29.38670000     -0.02907680      0.05860200      0.01051570       1
H              22.38410000     13.52410000    -30.16510000      0.00340821      0.03882350     -0.05444940       1
O             -15.45250000     44.45470000      2.52635000      0.06345430     -0.06646640      0.03496240       8
H             -16.26350000     42.80890000      2.71714000     -0.02160610      0.01687110      0.00459438       1
H             -16.28290000     45.78570000      1.89460000     -0.05400490      0.05162220     -0.02450390       1
O               8.43780000    -24.47540000     32.50270000      0.00543880     -0.00902070      0.02002610       8
H               7.66840000    -26.29410000     32.96180000      0.02156630      0.05345290      0.00229908       1
H               9.03152000    -23.40720000     34.01370000     -0.02953760     -0.03454810     -0.03243100       1
O               3.49284000     34.94390000      1.05761000     -0.02393610     -0.03550570      0.03313520       8
H               2.27778000     33.58140000      1.80589000      0.03030180      0.03523650     -0.02560140       1
H               3.44975000     35.05990000     -0.75054700     -0.01250110     -0.00068016     -0.00232719       1
O             -13.40790000    -11.87310000     14.31280000      0.01362480     -0.10171500      0.01048330       8
H             -13.95310000    -12.95180000     12.86460000      0.00394991      0.00554674      0.01836540       1
H             -13.74490000    -10.33270000     13.75690000     -0.01949860      0.09438110     -0.03192530       1
O              -6.80864000      4.19616000     14.31040000      0.03344990      0.04035780      0.00450770       8
H              -5.52220000      5.57142000     14.67870000     -0.03145930     -0.02618230     -0.00296367       1
H              -5.67811000      2.88699000     13.68520000      0.00035109     -0.00925124      0.00044461       1
O              27.22620000    -12.70320000     -4.68898000     -0.03603330     -0.01366230     -0.00483443       8
H              25.25670000    -12.59450000     -4.94486000      0.06178640     -0.00619814      0.01430190       1
H              27.93010000    -14.40710000     -4.99684000     -0.01966970      0.02277580     -0.00544594       1
O              21.39480000      6.96211000     42.24370000     -0.12857700      0.04058770      0.00801212       8
H              20.55790000      6.13504000     43.65060000      0.00805949      0.00454362     -0.00415611       1
H              22.99210000      6.55863000     42.26340000      0.12319000     -0.04220010     -0.00184131       1
O              16.15920000     25.01650000     46.75160000     -0.02842530      0.02387050      0.00094949       8
H              17.86240000     25.40080000     46.89400000      0.04224160      0.01755150      0.00406963       1
H              16.04840000     23.35620000     47.34250000     -0.00782241     -0.03548840     -0.00714524       1
O             -15.49930000     10.42320000     20.32530000     -0.01065330     -0.02651390      0.03942300       8
H             -13.69800000     10.34940000     19.93150000      0.01399810      0.00819885     -0.02301280       1
H             -15.34110000      9.35771000     21.86090000     -0.01487650      0.01761450     -0.00797719       1
