192
Lattice="24.63644 0.0 0.0 0.0 24.63644 0.0 0.0 0.0 24.63644" Properties=species:S:1:pos:R:3:force:R:3 TotEnergy=-1103.38736 cutoff=-1.0 nneightol=1.2 pbc="T T T"
O        1.39806000      24.25678300      13.40658000       0.02408170      -0.01630200      -0.02612770
H       24.49680000      23.22609000      13.29818000       0.00381766       0.00400814       0.00251525
H        2.70376000      23.29579000      12.34308000      -0.03451770       0.01779710       0.02864580
O        2.92902000       0.76732000       0.22113700       0.00754525      -0.01333050      -0.05586910
H        4.12132000       1.64092000      23.59606000      -0.01328900      -0.00865492       0.03221720
H        2.41642000      23.87456000      23.86557000       0.00428023       0.02261430       0.02619660
O       13.36560000       0.71296400      17.55760000      -0.04207760       0.05377230      -0.12103300
H       13.41020000       1.96674000      18.72780000      -0.00579630       0.06612910       0.05253930
H       13.83640000      23.98408900      18.33130000       0.04695530      -0.12000400       0.05842910
O       21.23622000      12.68174000      22.04056000       0.03629800      -0.00155800       0.00517085
H       22.75251000      11.60774000      22.21527000      -0.02455930       0.00128435      -0.00456708
H       21.99993000      14.35644000      22.20746000      -0.01788370      -0.00193280      -0.00313717
O        6.09757000      11.43536000      17.31640000       0.01612810      -0.01658690       0.01383400
H        6.55522000      10.32766000      18.80950000      -0.00924369       0.02049680      -0.02887180
H        6.40065000      10.47856000      15.76830000      -0.00874747      -0.00243298       0.01517250
O       16.95666000      11.03700000       7.55549000       0.00343371       0.09386610       0.15819200
H       15.81344000      12.56100000       7.66056000       0.01718520      -0.01400630      -0.00115912
H       16.74600000      10.52060000       6.05142000      -0.01767360      -0.06775070      -0.16446400
O       19.55176000       5.07116000      14.00530000       0.09274880       0.03104250      -0.02906280
H       21.75276000       5.20656000      13.25500000      -0.08772640      -0.01757100       0.02996030
H       18.87376000       3.34376000      13.97370000       0.01006770      -0.00187488      -0.01227930
O        2.06740000      13.41798000       7.71433000       0.00369030       0.00494750       0.02644830
H        2.67855000      11.80318000       7.12846000       0.00055186      -0.01036400      -0.01046900
H        2.46612000      13.36388000       9.54096000      -0.00131841       0.01321670      -0.01626130
O       10.16626000      14.53668000      15.01960000      -0.04125650      -0.01145520       0.02282350
H        8.65976000      13.52368000      15.60660000       0.02218070       0.01836730       0.00058432
H       11.32446000      13.21538000      14.74440000       0.01885250      -0.02172320      -0.01095430
O       11.41800000      20.26308000      23.52288000       0.02813990       0.03125790      -0.02874870
H       12.62960000      19.34688000      24.43808000       0.02140840      -0.01512420       0.01358670
H        9.93710000      19.79148000      24.27588000      -0.05425300      -0.01845780       0.02420920
O       11.42094000       4.68384000       8.98599000       0.06180260       0.00569441      -0.03019570
H       12.77574000       5.93003000       9.39612000      -0.02374050      -0.01558540       0.00149016
H        9.92654000       4.95993000       9.83740000      -0.04387790       0.01815730       0.02803100
O       15.05998000       3.66766000       1.04522000       0.01863670       0.11358800      -0.10815200
H       13.54254000       3.03306000       1.24762000      -0.11490000      -0.04138660       0.00987892
H       15.93626000       2.92976000       2.18292000       0.09709720      -0.07041290       0.10624300
O       10.17940000      17.96228000       6.27584000      -0.03012390       0.00280126       0.03125480
H        9.39452000      16.94868000       4.95134000      -0.00241853       0.00822567      -0.00874757
H        8.76309000      18.25138000       7.53114000       0.03505880      -0.01054960      -0.02102640
O        2.50636000      14.12300000      13.30056000      -0.06230630      -0.01667670      -0.03173880
H        0.90926000      13.07670000      13.51376000       0.02040650       0.03104550      -0.00434928
H        3.39786000      13.46540000      14.64356000       0.03464730      -0.01252970       0.03718670
O        2.48062000       1.68263000       5.06194000      -0.01273770       0.00066466       0.02490660
H        3.58318000       1.15430000       6.44090000       0.00158024       0.00006153      -0.01541460
H        3.06420000       1.15133000       3.41562000       0.00856675      -0.00207401      -0.00716491
O       14.50558000       0.90326000       9.24456000       0.06551390       0.00769878      -0.02197450
H       16.12638000       2.03076000       8.51426000      -0.05764190      -0.03855440       0.02202550
H       13.14438000       2.00086000       9.68906000      -0.00484522       0.01862640      -0.00264079
O       15.57348000      13.01020000      21.86430000       0.05617580       0.00457033       0.00638903
H       14.46868000      11.97600000      20.88650000       0.00726927      -0.01283970      -0.01477910
H       17.42798000      12.63100000      21.35490000      -0.05378320       0.00797502       0.01437340
O        2.54864000      15.61482000       2.74804000       0.00079323      -0.01080720       0.07465940
H        2.42514000      15.09782000       4.81594000       0.00105079       0.01708660      -0.08276820
H        1.68674000      14.31622000       1.80704000       0.00400234      -0.00391445       0.00732817
O       21.29512000      21.78910000      13.47126000      -0.02294890       0.07332980      -0.08319060
H       19.74772000      22.90450000      13.40246000       0.02565870      -0.01042830       0.00205378
H       21.13372000      20.95370000      14.92796000      -0.00527106      -0.05575410       0.08057030
O       10.48982000      12.24834000      24.05877700      -0.00961609       0.01967930       0.02788270
H        9.26112000      10.96404000      23.86089900      -0.03997510      -0.01438100       0.00136127
H       11.64512000      11.41354000      23.06599000       0.04714450      -0.00768896      -0.02601560
O        4.06106000      20.32010000      11.31634000      -0.07077540      -0.05935450      -0.01640080
H        5.26136000      19.00910000      11.64034000       0.02070750       0.00318570       0.00568327
H        2.43926000      19.08260000      11.04814000       0.04836630       0.06006860       0.00647718
O        8.98174000       5.59776000      16.18182000      -0.04222400      -0.06251330      -0.02200320
H        9.22164000       3.59474000      15.80242000      -0.01849660       0.08443060       0.01366050
H        7.11214000       6.10289000      15.86362000       0.05173900      -0.03152690       0.01243490
O       10.41120000       0.80426400       1.15826000       0.01580910      -0.02022020      -0.05038210
H        9.81952000       0.31818500       2.74794000      -0.00568959      -0.00796217       0.03524290
H       10.91470000      23.80233200       0.31549500      -0.00720743       0.02907000       0.01235810
O       18.89106000       2.47086000       7.52496000       0.00338947      -0.01787040      -0.05592340
H       20.35966000       3.34442000       7.89586000       0.03049490       0.03495180       0.04137320
H       19.51126000       2.25541000       5.75376000      -0.03586430      -0.01540160       0.01483560
O       21.67556000      13.49932000       9.13366000      -0.08264100       0.00561561       0.02800440
H       20.25083000      12.85742000       8.12386000       0.01390550       0.00259433       0.00901343
H       23.11697000      13.43962000       8.21596000       0.06269320      -0.00815619      -0.04046870
O        4.79812000       9.01976000      12.71130000      -0.04513610       0.01626280      -0.04854560
H        5.93696000       9.49086000      11.24120000      -0.01700480       0.00451385       0.02938670
H        2.94403000       9.50476000      12.15980000       0.06911500      -0.01675460       0.02082540
O       10.95584000      17.91670000      18.80190000       0.00577312      -0.03612710      -0.00551219
H       11.18944000      16.25460000      17.70730000      -0.01629340       0.04512310       0.04446070
H       10.79424000      17.75720000      20.69740000       0.00633572      -0.00715692      -0.04650140
O        3.51016000      10.42686000       0.61412000       0.02313080       0.03029080       0.05508280
H        4.03446000      10.09496000       2.46232000      -0.03390620       0.00079872      -0.04568200
H        2.02556000       9.58586000       0.13082000      -0.02431590      -0.01939570       0.00010902
O        6.84405000       3.18266000      23.05730000       0.03507610      -0.02491010       0.03203380
H        7.48407000       3.36996000      21.37740000       0.00847833      -0.00275514      -0.00103230
H        8.26166000       2.15176000      24.18770000      -0.03703340       0.03325400      -0.03950680
O        4.53493000      24.16878000      18.12130000      -0.02753460       0.00557675      -0.00562978
H        3.31873000      23.88238000      16.73720000       0.00444573       0.00563429       0.01247780
H        6.07294000      23.70308000      17.34260000       0.02263800      -0.00485429      -0.00799045
O        0.62614300      20.54540000       0.48244300       0.01520690      -0.01800480       0.00258863
H        1.65340000      19.04660000       0.93685000      -0.01394150       0.02132510       0.00537089
H        0.03094800      21.32460000       2.02985000       0.00151708      -0.01265010      -0.00135837
O        0.48985400       4.90827000      12.49040000      -0.01398620      -0.05658790       0.13541100
H        0.49573600       5.08756000      10.86810000      -0.00047613       0.02560340      -0.14225200
H        0.54441100       2.98653000      12.64530000       0.00599804       0.02742000       0.00857743
O       12.81778000       4.12692000      20.97178000       0.06741490       0.04646900       0.04582930
H       13.29288000       6.04402000      20.51398000      -0.01621700      -0.05431870       0.00304847
H       14.22428000       3.73842000      22.38118000      -0.05069930       0.01462010      -0.05105300
O        8.63214000       7.35022000       4.86124000      -0.01139140      -0.03783370       0.05363230
H        9.45034000       5.88852000       5.88334000      -0.01355220       0.04449200      -0.02884360
H        9.60386000       7.93132000       3.51554000       0.02287650       0.00027554      -0.02120270
O        7.94158000      16.48456000       1.71571000      -0.05203580      -0.01999660       0.00818686
H        8.92618000      15.04806000       1.18645000       0.00139261      -0.00245580      -0.00908936
H        6.06398000      15.82116000       1.72026000       0.05006990       0.02225440       0.00307617
O       14.03200000       8.85426000      18.96040000       0.07386860      -0.00914632      -0.02965870
H       15.98330000       8.51946000      18.21910000      -0.06583750       0.01012460       0.03825410
H       13.10770000       9.00266000      17.36670000      -0.00689779      -0.00361633      -0.00066450
O        8.77914000      10.49714000       9.66271000       0.02921740       0.07598150      -0.02203660
H        9.57294000      12.27324000       9.26995000      -0.02240390      -0.05158820       0.03519800
H        8.44954000      10.23834000       7.91751000      -0.00626123      -0.02729490      -0.01616830
O        3.36728000       4.65968000      17.74170000       0.01175160      -0.01253490       0.00226647
H        4.17328000       2.81373000      18.27190000      -0.03651040       0.05353290      -0.04650860
H        2.83558000       5.26116000      15.99110000       0.01854040      -0.04092030       0.04061860
O        3.54184000       9.09744000       5.52786000       0.10849600       0.07437900       0.00064318
H        5.39554000       8.54364000       5.65376000      -0.04355670      -0.00780842      -0.00257956
H        2.43324000       7.84484000       5.66306000      -0.05518090      -0.08038320       0.00941545
O       15.13870000      16.73800000       1.40636000       0.00475062       0.00946788       0.08428460
H       15.20010000      15.58550000       2.90456000       0.00382516       0.04557590       0.00370249
H       14.91080000      15.30360000       0.51546000      -0.00985058      -0.05216380      -0.08878030
O        6.19724000       0.09064700       8.86856000       0.02087240       0.02826310      -0.02682180
H        7.88804000      24.47813900       8.15726000      -0.00691759       0.01140050      -0.00629452
H        6.01574000      23.25008000       9.76916000      -0.01840400      -0.04167610       0.02851630
O       15.46246000       7.72566000      10.84116000       0.01747310       0.01435380       0.01976800
H       16.99866000       7.25686000      11.86926000      -0.02347720       0.00352078      -0.02063570
H       15.79576000       9.34600000       9.88066000       0.00725705      -0.03177600       0.00791169
O       20.58833000      18.14068000      17.05837000       0.05809640      -0.07898680       0.01143010
H       21.90502000      17.73488000      18.54291000      -0.05073230       0.02411290      -0.03954470
H       20.83596000      16.45678000      16.03703000      -0.01149080       0.05381160       0.02822180
O        6.44472000       5.06644000       9.80254000      -0.02367810       0.01938580       0.01804530
H        5.33972000       6.20154000      10.88464000       0.02250460      -0.03459980      -0.01648890
H        5.89312000       3.30634000       9.86124000       0.00087741       0.01056150       0.00286655
O        9.30374000      22.74316000      15.34450000       0.00657868      -0.04466290       0.05815220
H       10.46870000      23.62780000      16.67930000      -0.02276340      -0.02637100      -0.03992590
H        8.95737000      20.88753000      16.05440000       0.01920870       0.07140350      -0.01348270
O       17.58338000      21.28896000      23.95646000      -0.01360320      -0.02674940       0.06688920
H       16.42118000      21.08538000      22.60336000      -0.01301600      -0.00237645      -0.01305620
H       16.86868000      20.29508000       0.88462000       0.02176600       0.02409530      -0.06168910
O       11.77960000       9.13134000      14.27294000       0.05983410      -0.00399140      -0.04710150
H       10.47320000       7.86634000      14.21264000       0.00193092      -0.00582218       0.00592616
H       13.25830000       8.45014000      12.95574000      -0.04804690       0.02345390       0.03993690
O       23.39630000      19.19230000       9.65429000      -0.01698060      -0.03811500      -0.00728184
H       21.92710000      19.99390000      10.43490000       0.01325880      -0.00479460       0.00979827
H       22.90650000      17.35800000       9.52841000       0.00683088       0.03798620       0.00019774
O       15.23800000      20.79120000      18.71126000       0.03211240      -0.02394840      -0.04003000
H       13.81930000      19.58780000      18.55844000       0.00338131       0.00574711       0.00398820
H       16.48560000      20.24830000      17.31528000      -0.03275420       0.01504160       0.04566120
O       23.17730000      22.60826000       5.33426000      -0.01583530       0.01527600      -0.07266560
H       22.86640000      21.84926000       6.85676000       0.00975660      -0.02251920       0.04805190
H        0.00706000      23.63656000       5.11966000       0.01135050       0.00910585       0.02186490
O       16.40789000       9.16557000       2.32679000      -0.00074092       0.04106960      -0.00132671
H       15.81575000      10.64610000       1.27569000       0.00683286      -0.05012470       0.00908055
H       15.86109000       7.48736000       1.86260000      -0.00896308       0.00976263      -0.01324160
O       17.27170000       0.76514000      13.47040000      -0.04073280      -0.00714350       0.02644700
H       16.20650000       0.45624000      11.88840000       0.00751453       0.01153200       0.02280210
H       16.02910000       1.07144000      14.96700000       0.02546180      -0.01658880      -0.04139340
O       21.75958000      12.49300000      14.04856000       0.02224710       0.05535520      -0.03238140
H       20.91645000      11.09410000      14.66846000      -0.02430290      -0.02857310       0.00291454
H       21.27214000      13.09260000      12.27526000       0.00774415      -0.02814050       0.03313530
O       21.77936000      18.32236000      22.11985000       0.00025379      -0.02905930      -0.02438690
H       23.03286000      18.88406000      23.32053000      -0.01347820       0.02040080       0.00484520
H       20.11446000      19.08566000      22.12237000       0.01703930       0.00497392       0.01708230
O        0.21836000       7.68178000      21.70028000       0.03174740      -0.01724790      -0.03637660
H        1.58386000       7.07846000      20.39458000      -0.04497510       0.00884959       0.03985400
H       23.76350000       6.23937000      22.12688000       0.01518000       0.01139600      -0.00944500
O       10.58314000      23.60336000       6.09559000      -0.02063440       0.06727150      -0.01279360
H       11.88904000      23.74096000       7.27042000       0.03800390       0.01046640       0.02117020
H       10.19894000      21.95196000       5.99793000      -0.01371720      -0.08010150      -0.00837044
O        8.81994000      18.30898000      12.03766000      -0.03715890      -0.10588800       0.00271915
H        8.76189000      17.16708000      13.60856000       0.01146650       0.01950050      -0.04654160
H        9.33558000      19.78568000      12.64546000       0.03152880       0.08898110       0.02951560
O       23.49904000       5.44746000       6.91168000      -0.03523510       0.07782650       0.02252060
H       24.04830900       3.98566000       6.29106000       0.04392240      -0.08556740      -0.03245900
H       22.76969000       6.24496000       5.42440000      -0.00443798       0.01199070       0.00619234
O       14.50654000      15.47118000       8.02932000      -0.06520270      -0.00854053      -0.27674100
H       12.83184000      16.53086000       7.37374000       0.04997240      -0.03410380       0.01858530
H       14.53794000      15.73505000       9.53805000       0.00820789       0.04725190       0.25999400
O       19.17014000       7.54210000      18.30700000      -0.33097200      -0.17020900      -0.10625800
H       20.40784000       8.18688000      18.69160000       0.34075200       0.19367700       0.12869100
H       19.73991000       6.54382000      16.90270000      -0.01610000      -0.01959050      -0.02018660
O       21.84680000       8.32344000       2.39847000      -0.02801660       0.03510010       0.00943358
H       22.32880000       6.80134000       1.55433000      -0.00933008      -0.00774983      -0.01507860
H       20.17150000       8.93184000       1.71151000       0.03491180      -0.01910550       0.01671120
O       22.73170000       4.13144000       0.06352000      -0.01083130      -0.01775320       0.00308928
H       21.80680000       2.62333000       0.55952000      -0.00641769       0.00435675      -0.00357898
H       24.39940000       3.74964000       0.59212000       0.02128140      -0.00847868      -0.00151792
O       19.39830000       0.20766000       2.43482000       0.02384520       0.05495280       0.02743250
H       20.45970000      23.62330000       3.15722000       0.02624460      -0.01532610       0.02137440
H       18.36790000      23.86890000       1.46552000      -0.04192110      -0.03008960      -0.04988700
O        6.79984000       8.84992000      22.64400000       0.08301320      -0.03536290      -0.05625260
H        6.90454000       7.05490000      22.95460000       0.00001754       0.00039157      -0.00212678
H        5.48564000       9.44295000      23.59110000      -0.05615320       0.02423720       0.03664950
