192
TotEnergy=-1103.47209000 cutoff=-1.00000000 nneightol=1.20000000 pbc="T T T" Lattice="24.72770000       0.00000000       0.00000000      -0.00000100      24.72770000       0.00000000      -0.00000100      -0.00000100      24.72770000" Properties=species:S:1:pos:R:3:force:R:3:Z:I:1
O              23.85510000     -4.90453000    -29.63330000     -0.06174400      0.06244980     -0.00086095       8
H              22.23130000     -4.42100000    -30.57720000      0.04365240     -0.00779517      0.02295170       1
H              24.26010000     -6.46740000    -30.28060000      0.02037230     -0.04971640     -0.01824070       1
O              47.83780000     45.57380000      1.18751000      0.03738640      0.00923225     -0.03720760       8
H              48.76160000     47.15850000      1.66420000     -0.02338980     -0.01847380     -0.00965435       1
H              48.44920000     45.21380000     -0.60486400     -0.01179900      0.01051500      0.03685080       1
O              10.06620000      3.62678000     15.56060000      0.05077060      0.09057380      0.01424260       8
H              11.62480000      4.02809000     16.64410000     -0.03746880     -0.00044421     -0.01928000       1
H               9.96156000      1.95768000     15.74110000     -0.01342630     -0.09257420      0.00429099       1
O              -5.23917000    -10.37040000     -4.21284000      0.05609160     -0.03240780     -0.03749800       8
H              -3.57654000    -11.25120000     -5.16393000     -0.06754760      0.03878630      0.03337700       1
H              -4.91531000     -8.72304000     -3.40803000      0.00381986     -0.01434580     -0.00455057       1
O               5.49722000     32.06050000     19.44940000     -0.05770060     -0.02665550     -0.04588240       8
H               6.66178000     32.95450000     20.38360000      0.04416640      0.02575190      0.01360710       1
H               5.72460000     32.05370000     17.53400000      0.01253350      0.00650256      0.03189720       1
O              -5.61360000      9.72297000      7.55093000     -0.00195489      0.03847670     -0.06319380       8
H              -5.34211000      9.19754000      9.19516000     -0.00771635     -0.03175570      0.03092960       1
H              -6.58483000      8.74746000      6.27408000      0.01338130     -0.00790226      0.02788690       1
O              45.01990000     26.20260000     12.80430000     -0.05655200     -0.03602180     -0.05181510       8
H              46.75520000     26.30360000     12.51840000      0.03263450     -0.00180845      0.00015727       1
H              44.33140000     25.21130000     11.13300000      0.02277690      0.03373350      0.05038970       1
O              -1.34404000    -28.84020000      7.90276000     -0.00087077      0.00350152     -0.03074330       8
H              -0.69684900    -30.17170000      6.62820000     -0.02526860      0.03690070      0.02266090       1
H              -2.52969000    -27.47630000      7.17152000      0.02852520     -0.04705040      0.01469030       1
O              31.55790000    -33.93630000     19.31260000      0.03310610     -0.03180870      0.01853160       8
H              29.78200000    -34.22910000     19.27780000     -0.02147520      0.00369957     -0.00310576       1
H              32.20760000    -35.32370000     20.43680000     -0.01107680      0.02459990     -0.02034570       1
O              10.87250000    -27.89290000    -25.15240000      0.03408760      0.06429540     -0.08472670       8
H              12.60030000    -27.87670000    -26.13710000     -0.04698230     -0.01059400      0.03723720       1
H              10.62170000    -29.00770000    -23.85590000      0.01625820     -0.04760230      0.04434840       1
O              -9.47435000      2.68243000      9.26155000     -0.00653222     -0.02134920      0.09860800       8
H             -10.20160000      3.46898000      7.90538000     -0.02991820      0.02109070     -0.05244220       1
H             -10.88450000      2.34248000     10.57350000      0.03601670      0.00758120     -0.04805520       1
O             -11.39250000     28.59540000     53.98780000      0.06118010     -0.01668150     -0.05709270       8
H             -13.17610000     28.56710000     53.96890000     -0.02596480      0.00646985     -0.01036810       1
H             -10.69430000     27.95700000     52.20770000     -0.02879700      0.01285150      0.05835190       1
O              16.60090000    -29.95920000    -13.78150000      0.01137130      0.00009704     -0.07660930       8
H              16.62250000    -31.47480000    -14.86230000      0.00540382      0.01112700      0.01520080       1
H              16.04140000    -30.35950000    -12.20540000     -0.01919780     -0.01583850      0.06225750       1
O              27.02800000     15.19420000     38.03730000      0.10453500     -0.04771910     -0.01484930       8
H              25.34930000     15.33830000     37.82190000     -0.07595900      0.00215473     -0.01845870       1
H              27.72950000     13.54230000     37.19200000     -0.03116660      0.04947700      0.02882990       1
O              -0.32119600      1.93442000      1.72305000      0.03348460     -0.04879570     -0.08420040       8
H              -0.02473300      3.02716000      3.01421000      0.02377610      0.04198900      0.05561630       1
H               1.15141000      2.15260000      0.44945800     -0.04544800     -0.00210452      0.03218930       1
O             -31.18610000     23.54550000     33.10280000      0.00636099     -0.00717733      0.01989780       8
H             -32.41300000     24.90490000     33.23540000     -0.00271327      0.00469991     -0.00649161       1
H             -31.89050000     22.23220000     34.22150000      0.00732224      0.00223266     -0.01334500       1
O             -33.12660000     11.51780000     24.43860000     -0.09586580     -0.05290030     -0.00032899       8
H             -34.34390000     10.84250000     22.84520000      0.04938500      0.02628820      0.03746890       1
H             -31.76460000     12.40270000     23.90380000      0.05396500      0.03015200     -0.04345260       1
O             -18.52000000     65.29040000    -20.57330000     -0.03599490     -0.06822900     -0.01590540       8
H             -18.20840000     64.04140000    -19.06950000     -0.00809497      0.02637190     -0.03956890       1
H             -19.49170000     64.11360000    -21.93290000      0.03776740      0.03708380      0.04807790       1
O              69.02930000     21.33450000     40.74270000      0.00076386      0.01697140     -0.00802416       8
H              68.34420000     22.69690000     39.70800000      0.01614120     -0.00187911      0.00533403       1
H              67.51570000     20.54690000     41.29350000     -0.01331210     -0.01384610      0.00207515       1
O              57.61860000    -20.29620000      4.17704000      0.01159140     -0.01537910      0.02827550       8
H              57.40250000    -21.10870000      5.88892000     -0.01174180      0.01123610     -0.03893990       1
H              57.73410000    -21.62950000      2.87409000     -0.01448030      0.01069460      0.00863703       1
O              31.27450000     19.06870000    -12.98390000      0.11753600      0.03651480     -0.08894340       8
H              32.65790000     17.80680000    -13.54240000     -0.03182730      0.02980310      0.00358718       1
H              30.26970000     18.14480000    -12.08070000     -0.09263330     -0.07830540      0.07779490       1
O             -18.14630000      7.24026000     63.93490000      0.00550041     -0.02151170     -0.01750120       8
H             -18.17060000      8.86973000     62.92770000      0.01745670     -0.03436620      0.02139520       1
H             -16.81750000      5.78711000     63.73830000     -0.02242780      0.05170610      0.00219657       1
O               7.82432000      1.42958000      0.18491200      0.12121700     -0.03637330      0.09495780       8
H               6.68962000      1.26225000     -0.99314000     -0.08586730     -0.01557710     -0.08839310       1
H               8.89672000     -0.22914200      0.29517700     -0.02882570      0.04295650     -0.01313870       1
O              45.20340000      4.47876000     25.05760000     -0.05927220      0.03614730     -0.02176510       8
H              43.72410000      5.69445000     25.50960000      0.05805760     -0.02853280      0.01123000       1
H              46.51670000      4.18893000     26.26620000     -0.00646787      0.00145437      0.00740145       1
O              -0.47056700     60.95880000     30.13760000     -0.03668120      0.01645810      0.01281720       8
H              -2.29878000     60.62020000     30.74740000      0.04474910      0.01047670     -0.01383480       1
H              -0.29692900     62.81750000     29.74510000     -0.01004600     -0.02972430      0.00729079       1
O               9.90196000     39.60390000     11.01400000     -0.00448217     -0.02146750     -0.07561870       8
H               9.77366000     38.63540000      9.23023000     -0.00561833      0.03318170      0.06474600       1
H              11.00970000     38.55450000     11.95420000      0.01729420     -0.00764107      0.00935182       1
O             -16.96450000     20.57780000     19.82850000      0.00428956      0.03170210      0.00722250       8
H             -17.04010000     18.77530000     19.57710000      0.00155451     -0.00737287      0.01141740       1
H             -16.05010000     21.08220000     21.38450000     -0.00708468     -0.01912950     -0.01739400       1
O              31.37770000     34.34750000     52.40640000     -0.05033310      0.01016380      0.00001086       8
H              31.32070000     32.57470000     52.62020000      0.01730990     -0.02868490      0.00240092       1
H              29.47510000     34.66580000     52.22240000      0.04829380      0.01108670     -0.00812094       1
O              14.04980000     34.61950000     19.99640000     -0.00594153      0.05966450      0.01108580       8
H              14.15960000     35.98600000     18.66130000      0.00031663     -0.03852200      0.02419220       1
H              14.16630000     32.86490000     19.65540000     -0.00006131     -0.01694770     -0.01902780       1
O               3.17478000    -26.17200000     18.97790000     -0.02397060      0.04526490     -0.02374360       8
H               1.80783000    -27.27860000     19.24690000     -0.01540060     -0.02555760      0.00619107       1
H               4.71337000    -26.92850000     19.34800000      0.03581940     -0.02705350      0.01009360       1
O               0.57793300     16.74830000      4.05551000      0.04769100      0.01587530      0.00846895       8
H               2.50646000     16.70510000      4.14915000     -0.03810170     -0.00375531      0.00318862       1
H               0.32781600     18.19920000      2.95443000     -0.01186020     -0.00763304     -0.00223044       1
O               1.24508000      0.49213500     14.00130000      0.01347130     -0.01211060     -0.07149140       8
H               2.18574000     -0.57679300     12.60860000     -0.02408460      0.02542180      0.03793750       1
H               1.91530000     -0.04071100     15.54650000      0.01359210     -0.01030090      0.02818010       1
O             -35.31530000     54.03210000    -30.26380000     -0.01698730     -0.00487630      0.00593045       8
H             -33.79640000     54.06060000    -31.25990000      0.01659950     -0.00647016      0.00536313       1
H             -35.18040000     52.85860000    -28.83270000      0.00732185      0.01530510     -0.01335980       1
O               5.68974000     51.79060000    -16.48180000     -0.04674790      0.01293490      0.04894050       8
H               5.08155000     53.21360000    -15.17700000      0.01355640     -0.04381230     -0.04142820       1
H               4.31130000     50.44310000    -16.10020000      0.04447470      0.02379650     -0.01299070       1
O             -34.17130000     40.11460000      3.19763000      0.02272150     -0.06792790     -0.04947740       8
H             -33.65860000     38.40760000      1.82182000     -0.03671270      0.05906140      0.04915120       1
H             -36.01280000     40.35320000      3.23676000      0.01318370      0.00389256     -0.00756837       1
O              21.01530000     38.39750000     12.13670000      0.09082940      0.08352220      0.04076320       8
H              20.97810000     40.45130000     11.96100000      0.01094560     -0.05737030      0.01542690       1
H              19.60240000     37.82520000     11.50470000     -0.09993080     -0.03879070     -0.04746400       1
O             -17.68000000    -12.86460000      7.60195000      0.03397100      0.00718244     -0.02026380       8
H             -17.46060000    -14.11750000      6.25441000     -0.00529556      0.00935129      0.00245166       1
H             -19.10430000    -13.32440000      8.57992000     -0.02063490     -0.00931017      0.01728330       1
O             -47.12540000      2.93698000     21.43450000     -0.10071000     -0.05801120      0.02227420       8
H             -47.16070000      1.64560000     20.14770000      0.02248780      0.00083180      0.00136367       1
H             -45.85600000      4.01594000     21.50490000      0.08112130      0.06163720     -0.01662240       1
O             -21.96150000    -14.03860000     34.85440000     -0.04148280     -0.00627536     -0.05929130       8
H             -22.35670000    -15.83920000     35.03550000      0.00562432      0.01065620      0.00852387       1
H             -23.06650000    -13.63670000     33.23920000      0.02739620     -0.00563392      0.04801030       1
O              17.07700000     14.79820000     32.74960000     -0.00098280     -0.02091450      0.02219780       8
H              17.28400000     13.02510000     32.37170000      0.02365180     -0.01141500      0.01687140       1
H              16.13640000     15.00600000     31.26000000     -0.02166920      0.03179400     -0.03944310       1
O             -21.44380000     -1.93768000     34.49540000      0.02924000     -0.05971870      0.01172760       8
H             -20.22470000     -3.56738000     34.75520000     -0.03484710      0.05663240     -0.00466026       1
H             -23.04730000     -2.66445000     33.94900000      0.00206240      0.00132914     -0.00392153       1
O              41.98750000      7.34181000     36.84910000     -0.01577640     -0.02722880     -0.02742160       8
H              41.54960000      5.78613000     35.86350000      0.00458693      0.02457060      0.00931908       1
H              42.74530000      6.59035000     38.28980000      0.00963958      0.00072942      0.01868570       1
O              -9.49791000    -35.03610000     -7.61306000      0.06253080      0.02157270      0.06922280       8
H              -7.66573000    -35.15040000     -6.64022000     -0.05692070      0.01041950     -0.02121000       1
H              -9.42404000    -36.39050000     -8.71650000      0.00175127     -0.02367380     -0.04454640       1
O              52.28780000    -19.62580000    -13.49540000      0.00584499     -0.02723880      0.06276530       8
H              53.48950000    -19.42350000    -11.98310000     -0.01986660      0.01402040     -0.03127760       1
H              51.28000000    -21.06310000    -12.70480000      0.01316440      0.02493070     -0.01932290       1
O              10.62100000      0.21714200      9.90505000      0.05207940     -0.01266430      0.00774619       8
H              10.06690000     -0.27419000     11.53010000     -0.00821429     -0.01005850      0.01963950       1
H               9.23093000      0.85006400      9.09693000     -0.05277770      0.02514540     -0.02412530       1
O             -33.95950000     -2.89027000     46.02560000     -0.03203780      0.04881500     -0.03194300       8
H             -34.18050000     -2.69230000     44.15850000      0.00546969     -0.01820020      0.03799060       1
H             -33.05030000     -4.32528000     46.50580000      0.02304800     -0.03034550      0.00193240       1
O               6.69994000    -12.24160000    -10.76690000     -0.01953260     -0.01623410      0.03883180       8
H               6.79486000    -11.28590000     -9.21650000     -0.01262860     -0.01212930      0.01201490       1
H               7.77704000    -11.19960000    -11.65980000      0.02581830      0.01897170     -0.04562210       1
O              22.53720000     18.12290000     12.86920000      0.00888249      0.07850520     -0.06361560       8
H              21.49570000     19.50760000     13.74840000      0.02237170     -0.03156940     -0.01895540       1
H              23.26940000     19.11160000     11.02090000     -0.03939030     -0.03692250      0.07528170       1
O               9.50008000     22.03760000    -10.28940000      0.02322270     -0.02911090     -0.06855060       8
H               8.50714000     21.91420000     -8.87947000     -0.02776160     -0.00240967      0.05318580       1
H               8.70429000     20.64800000    -11.43200000      0.01001430      0.03856500      0.02199450       1
O              25.40360000     54.89850000     30.14250000      0.02571400      0.08706670     -0.00771046       8
H              26.76350000     54.44140000     31.31780000     -0.01090740      0.00601164     -0.01249130       1
H              25.72860000     56.93600000     29.70400000     -0.01651780     -0.08996870      0.02284660       1
O              -7.57497000      7.52919000      3.28878000      0.01743150     -0.01252990      0.01049780       8
H              -7.77603000      9.13822000      2.54003000     -0.01045590      0.01539400     -0.01877370       1
H              -9.10073000      6.57214000      3.15441000     -0.01314570      0.00161854      0.00674042       1
O              14.47180000    -30.05350000     15.87720000     -0.05137870     -0.03764010     -0.02986210       8
H              12.70990000    -29.56430000     15.02070000      0.05675910     -0.01549980      0.03671700       1
H              14.56850000    -32.06390000     16.10280000     -0.00751629      0.05408230     -0.00140482       1
O               1.68293000     15.29160000     43.03900000      0.01445470      0.08757950      0.21429100       8
H               1.18928000     13.87560000     43.83300000     -0.01965620     -0.07165580      0.02407270       1
H               1.72108000     15.28200000     41.48550000      0.00538596     -0.01598660     -0.23534200       1
O              43.42240000     42.92450000     -0.88713800      0.03267850      0.02467510      0.05427110       8
H              44.89900000     44.06910000      0.02743100     -0.06269060     -0.04527940     -0.02599450       1
H              42.42910000     41.97510000      0.46888200      0.02382180      0.02833300     -0.02306500       1
O              21.85920000     11.02730000    -32.70310000     -0.01927670      0.00792776     -0.03143520       8
H              20.82470000      9.50543000    -32.33260000      0.01553420      0.02712920     -0.01733210       1
H              21.46440000     11.84620000    -34.51670000      0.00720325     -0.02491760      0.05189200       1
O             -13.65890000     42.87300000      3.55278000     -0.02457140      0.04199970      0.04982080       8
H             -15.46390000     42.37530000      3.34443000      0.02119260      0.00168085      0.01487940       1
H             -13.56030000     44.02890000      5.30872000     -0.00772085     -0.05239870     -0.05556680       1
O              10.97510000    -29.47870000     33.37010000      0.07031600      0.05566410      0.01299730       8
H              12.72250000    -29.74070000     34.33400000     -0.05858350      0.00695847     -0.03596770       1
H              11.08330000    -27.45800000     33.10300000     -0.00790626     -0.06271170      0.01985080       1
O               2.71395000     37.00250000      1.11999000      0.00114120     -0.00787985     -0.09434390       8
H               1.41051000     36.29160000      2.03159000     -0.03785440     -0.01068190      0.03094880       1
H               2.05445000     36.45170000     -0.86517400      0.03494190      0.01685330      0.05923300       1
O             -10.29030000    -12.65990000     12.73760000     -0.00006278      0.08140170     -0.05773160       8
H             -10.07810000    -14.27820000     12.19370000      0.01020790     -0.07133060     -0.00612596       1
H              -9.88816000    -11.79870000     10.99010000     -0.00729509     -0.01162150      0.05819440       1
O              -5.51912000      5.22424000     17.06750000     -0.01397450     -0.03978830     -0.04446820       8
H              -4.38435000      5.55343000     18.44670000      0.01007680      0.00285057      0.01634230       1
H              -4.88073000      3.66884000     16.18080000     -0.01241290      0.03055770      0.01453490       1
O              26.63230000    -13.93380000     -3.80251000      0.04537690     -0.02852210     -0.02237210       8
H              25.27100000    -14.86220000     -4.50767000     -0.02442140     -0.00504728      0.00079438       1
H              28.10050000    -15.09120000     -4.63090000     -0.02659150      0.02576960      0.02866830       1
O              22.29660000      6.23370000     45.26740000     -0.01823670      0.05015320     -0.02568390       8
H              21.86510000      5.89737000     46.94180000     -0.01347390     -0.01346110      0.04214260       1
H              23.54320000      5.10861000     44.86280000      0.04711460     -0.03572530     -0.00718142       1
O              15.72040000     27.15580000     49.04990000     -0.05973840     -0.02959750     -0.01064650       8
H              17.41560000     27.45570000     49.09770000      0.06960730      0.02301970      0.00819232       1
H              15.81440000     25.42580000     48.45720000     -0.01414710     -0.00218101      0.00323234       1
O             -16.28570000     10.76650000     22.00520000     -0.05824000      0.00465141      0.07277400       8
H             -14.65430000     11.06410000     21.61100000      0.07488260      0.00525007     -0.02818120       1
H             -16.21490000     10.97040000     23.91780000     -0.01504540     -0.01092990     -0.04008960       1
