192
TotEnergy=-1103.02185000 cutoff=-1.00000000 nneightol=1.20000000 pbc="T T T" Lattice="24.19567000       0.00000000       0.00000000      -0.00000100      24.19567000       0.00000000      -0.00000100      -0.00000100      24.19567000" Properties=species:S:1:pos:R:3:force:R:3:Z:I:1
O              10.80690000      9.15355000     15.94610000     -0.14849700      0.03496060      0.01396820       8
H              12.21370000      8.47203000     15.50690000      0.13028900     -0.05926020     -0.04097830       1
H               9.57305000      8.65352000     14.53000000      0.02312550      0.01142600      0.02118440       1
O              22.33660000     20.51410000      1.09249000     -0.01245440     -0.00908957      0.00664582       8
H              20.53630000     20.02910000      1.14878000      0.02652940      0.00711075     -0.00192853       1
H              23.14710000     19.43620000     -0.17580100     -0.00414525      0.01048280     -0.00092356       1
O               3.69448000      3.82235000     11.25150000     -0.02438010      0.02049200      0.03585580       8
H               4.11752000      4.75438000      9.70097000     -0.01700030      0.00823513      0.02937270       1
H               2.66168000      4.80998000     12.74270000      0.03856010     -0.01653310     -0.06569090       1
O              21.41250000      8.37167000     21.20820000      0.05657370     -0.07229860      0.10738600       8
H              21.06830000      9.48899000     20.02570000     -0.01939150      0.09495100     -0.07808170       1
H              22.70450000      8.98145000     22.48850000     -0.03475840     -0.00567360     -0.03358650       1
O              13.10500000      7.63128000      2.96624000      0.08447010      0.16534800     -0.09323910       8
H              14.30550000      7.54797000      1.27650000     -0.03289160     -0.00877689      0.06305410       1
H              12.54710000      6.20524000      3.41985000     -0.06060710     -0.17058400      0.03043290       1
O              18.87260000     15.91080000     11.63260000      0.01282500      0.01403550      0.01592250       8
H              17.49330000     14.73500000     12.06770000      0.01392050      0.01514780      0.01179030       1
H              19.43980000     16.98950000     13.09890000     -0.02372940     -0.03354050     -0.03127990       1
O               0.87023400     16.47470000     10.13530000     -0.00196101      0.00014292      0.00213528       8
H               0.61885900     17.45630000      8.64564000     -0.00259863      0.00166160     -0.02415280       1
H               0.66327900     17.80570000     11.30400000      0.00466298      0.00994050      0.02636270       1
O               4.76157000     14.98730000     23.44130000     -0.05723650     -0.07174080     -0.06926920       8
H               5.56619000     13.69380000     22.29210000     -0.01181230      0.02838300      0.02037590       1
H               5.90343000     15.80880000     24.36460000      0.06732480      0.03965470      0.04614960       1
O              18.62870000     21.06670000     18.55400000      0.35101500     -0.13794200      0.04543330       8
H              17.25690000     21.61740000     18.35990000     -0.28878700      0.13834700     -0.05629820       1
H              20.33000000     22.05740000     18.03480000     -0.06395120      0.00392713      0.00698830       1
O               5.29261000     20.86870000      6.67319000     -0.06623230      0.03400900     -0.00823863       8
H               5.80574000     19.51120000      5.64238000      0.00149124     -0.01418100     -0.00301828       1
H               3.29360000     21.18230000      6.25298000      0.06461780     -0.02028080      0.01270410       1
O              18.28350000     16.28110000      6.01756000      0.01981700     -0.03855310     -0.00554052       8
H              18.92060000     14.41110000      5.29307000     -0.02943670      0.07718380      0.05337690       1
H              18.38030000     16.65510000      7.89532000      0.01119050     -0.02785260     -0.03415120       1
O               1.64935000     24.08500000     20.33430000      0.05753690     -0.07359860      0.02052400       8
H               3.53844000     24.45330000     20.85990000     -0.05013020     -0.00397474     -0.02435240       1
H               1.74487000     22.03480000     20.43710000     -0.00551919      0.07509030      0.00161953       1
O               8.79056000     13.70350000     16.05760000      0.06577500     -0.04793210      0.02892370       8
H               8.65707000     14.32930000     14.38830000     -0.01033130      0.00274016     -0.02196920       1
H              10.38150000     12.41550000     15.93930000     -0.06237600      0.04413710      0.00414467       1
O              14.60060000     12.98140000     12.99630000      0.01374810     -0.05369720     -0.07617770       8
H              14.92530000     11.22890000     11.93590000     -0.01068350      0.06214070      0.04814840       1
H              14.37870000     12.47060000     14.68330000      0.00272317     -0.00730959      0.02631630       1
O              12.45710000     23.13810000      6.10438000     -0.00867168      0.02847680     -0.05206220       8
H              13.96790000     22.30380000      5.38706000     -0.01985790      0.01230150      0.00819175       1
H              11.72310000     24.39510000      4.68868000      0.03131510     -0.04390510      0.04016890       1
O              24.49560000     19.93960000      6.24007000     -0.00058719      0.00243269      0.02714060       8
H              24.15210000     19.86530000      4.44864000     -0.01858530      0.00814152      0.00809884       1
H              23.27340000     20.95410000      7.26027000      0.01226580     -0.01054860     -0.03948870       1
O              12.10670000     17.33570000     17.96400000      0.09918490      0.04463420      0.00123879       8
H              10.62190000     16.57240000     17.87020000     -0.09344090     -0.04876070     -0.00851386       1
H              11.97100000     18.83010000     18.97080000     -0.00519806      0.01210650      0.00728431       1
O               9.67028000      4.12465000     18.60060000      0.02055810     -0.00943218     -0.07052720       8
H               9.89093000      2.89526000     17.02090000     -0.00523698      0.04385410      0.05637760       1
H               9.97962000      5.85562000     17.83760000     -0.01224320     -0.02919850      0.01505510       1
O              17.47060000      7.29355000      0.34855500     -0.04032250      0.02279970      0.08751630       8
H              17.42900000      8.75226000      1.69048000      0.01583350     -0.03787600     -0.05311840       1
H              18.20730000      7.72385000     -1.18509000      0.02258350      0.02492870     -0.02383560       1
O               1.10148000      7.37078000     14.55750000      0.02927240      0.03673360      0.02189400       8
H               1.50549000      9.23024000     14.30170000     -0.01950200     -0.03044390     -0.01203160       1
H               1.85955000      7.23165000     16.25580000     -0.00688707     -0.01524200     -0.01298650       1
O               8.28375000      7.48016000     11.58980000     -0.03387920      0.04804150     -0.02603470       8
H               6.79831000      7.84770000     10.36450000      0.03472020      0.00395333      0.02390030       1
H               8.21536000      5.74751000     11.43350000      0.00877170     -0.04972260      0.00534217       1
O               4.93246000      7.97060000      7.77906000      0.01624000     -0.02064010      0.01201280       8
H               4.76692000      7.01576000      6.17837000     -0.01127400      0.03138050      0.01562470       1
H               3.82934000      9.42173000      7.92738000     -0.00558713     -0.00445942     -0.01035510       1
O              11.37000000     11.74920000     22.05040000     -0.02484640      0.00734317     -0.02189590       8
H              11.49240000     10.88310000     23.60500000     -0.00392029     -0.00803193      0.01201380       1
H               9.57813000     11.62310000     21.47520000      0.03122920     -0.00477376      0.01249330       1
O               2.81924000      7.29440000      3.61951000     -0.00438755     -0.01556490     -0.01490110       8
H               3.36525000      5.85866000      2.53071000     -0.00966614      0.01818860     -0.00060012       1
H               1.97466000      8.63605000      2.64114000      0.01536000     -0.01032100     -0.00418117       1
O               6.33241000     10.91940000     19.87600000      0.08023780      0.08074590      0.10132800       8
H               7.21505000     11.43850000     18.47800000      0.03774820      0.03614790     -0.04522230       1
H               5.28443000      9.94858000     19.13030000     -0.11861400     -0.10656800     -0.05357970       1
O              14.52070000     23.28740000     -0.19329100     -0.01796300      0.02261780     -0.03484570       8
H              14.65330000     22.44280000      1.33261000      0.00779418     -0.02043470      0.03391560       1
H              16.12660000     24.05100000     -0.57148900      0.01620820      0.00360069     -0.00302317       1
O              14.30330000     23.34140000     15.52510000      0.00015043      0.02967050     -0.06089260       8
H              14.56140000     21.90940000     14.21090000     -0.00837705      0.04215200      0.03219040       1
H              14.08370000     25.40350000     14.40320000     -0.00391775     -0.06495060      0.03858870       1
O               5.26636000     23.31550000     11.26300000      0.01121230     -0.01752300      0.00408031       8
H               5.24058000     22.27760000      9.73258000      0.00205290      0.01153420     -0.00098379       1
H               4.71997000     25.05290000     11.07070000     -0.01648270      0.00329467     -0.00440509       1
O              21.43800000      3.81051000      5.08529000     -0.07046810     -0.13032300     -0.12167200       8
H              21.60160000      5.12198000      6.02306000      0.00836746      0.12548400      0.08643960       1
H              19.71900000      3.86567000      4.14266000      0.05636560      0.00472786      0.02717880       1
O              19.10650000      1.13701000     22.73710000      0.05060500      0.03642130     -0.02393770       8
H              19.60670000      2.63161000     21.24640000     -0.01359070     -0.06403900      0.05435500       1
H              20.69540000      0.36981100     23.51230000     -0.03706030      0.02353990     -0.02746110       1
O              13.72190000     15.39000000      3.95909000     -0.06675810      0.18355600     -0.06482610       8
H              13.79810000     13.82280000      3.86751000      0.02301190     -0.19662100      0.00767985       1
H              14.42270000     16.30180000      5.22583000      0.03652490      0.01066970      0.05029080       1
O              15.05280000      4.64619000     20.13260000      0.01436240      0.00961807     -0.17833900       8
H              15.18290000      4.66300000     21.70710000      0.02963480      0.00221616      0.19713700       1
H              13.35850000      4.28237000     19.89520000     -0.04321780     -0.01217320     -0.02157010       1
O              19.99390000     12.26440000     17.30960000      0.08881770      0.06049340      0.01728780       8
H              18.22870000     12.39630000     17.23250000     -0.03025690      0.01721380      0.00447630       1
H              20.90150000     14.18140000     17.64100000     -0.04879830     -0.07974110     -0.01956050       1
O               0.85616900      0.16186100      3.07546000     -0.06577760      0.02271430      0.02574550       8
H              -0.28038300      1.53512000      4.20865000      0.04191600     -0.06486700     -0.05783420       1
H              -0.29613000     -1.24733000      2.17013000      0.02570320      0.04870890      0.02986500       1
O              15.03860000     13.12620000     18.12840000      0.04525460     -0.03747680     -0.03699590       8
H              14.27950000     11.99190000     19.24390000     -0.02563010      0.00118452      0.02581010       1
H              14.46310000     14.78300000     18.04430000     -0.02947870      0.03371090      0.01674200       1
O              18.03840000     11.09650000      5.10611000      0.00551585      0.00620061     -0.02847830       8
H              17.08310000     11.02520000      6.58394000     -0.03027910      0.00424907      0.02482180       1
H              19.37950000      9.99939000      5.50225000      0.02841560     -0.01697250     -0.00024584       1
O               6.66918000     12.72290000      5.87152000     -0.05342430      0.05512210      0.15285600       8
H               7.24476000     13.82480000      4.80195000      0.04516760      0.11247500     -0.07640150       1
H               6.87401000     11.37720000      5.02923000      0.01296480     -0.16103500     -0.07452250       1
O              12.43370000      3.58685000     13.42440000     -0.03895080     -0.10200200     -0.01530770       8
H              13.26200000      4.96135000     12.74740000      0.02507630      0.03338040     -0.02788180       1
H              11.67740000      2.25947000     11.90150000      0.01175770      0.05668760      0.03607320       1
O               7.80989000     15.06870000     11.33230000      0.06113590      0.04899750     -0.01312390       8
H               7.63086000     14.25820000      9.74568000     -0.00651855     -0.01230310     -0.01068300       1
H               9.40598000     16.17080000     10.95710000     -0.05070870     -0.03035080      0.01529830       1
O               0.94791500     18.77120000     21.40620000     -0.04126790     -0.01729070     -0.06185560       8
H               1.52367000     17.09300000     21.73140000      0.01953810     -0.00635489      0.01018050       1
H              -0.06550400     18.34230000     19.73330000      0.02439580      0.01591390      0.04594540       1
O              20.08770000      4.30331000     18.69930000     -0.09573440      0.00044472     -0.02151830       8
H              18.13150000      4.90640000     18.48460000      0.06078120     -0.03450890      0.00568657       1
H              20.64800000      5.66157000     19.67630000      0.02928160      0.03056520      0.02017960       1
O               9.60025000      1.41601000      9.58220000     -0.03361270      0.06439230      0.05649890       8
H               7.90810000      0.88055500     10.16000000      0.02072490     -0.00708087     -0.00145170       1
H              10.27280000      0.18490700      8.60838000      0.03081820     -0.05694370     -0.04323250       1
O               4.24651000      3.14086000      0.89829400      0.00951494     -0.00539379     -0.00034510       8
H               3.14700000      2.02567000      1.91138000     -0.00209825     -0.00346409     -0.01245920       1
H               5.05081000      2.04602000     -0.39436700     -0.00318056      0.01318950      0.01371920       1
O              22.09080000      0.03846600     16.92820000     -0.02176130      0.03122750      0.02835330       8
H              21.34020000      1.62167000     17.80970000      0.00302834     -0.03118460     -0.03177150       1
H              23.52240000      0.06326600     18.05790000      0.02676270     -0.00851722      0.00340256       1
O               1.11773000     21.12230000     13.10490000     -0.06766450     -0.06481650      0.00128937       8
H               2.60550000     21.67370000     12.46050000      0.06905190      0.02886680     -0.02297440       1
H               0.62116900     22.19130000     14.38360000     -0.01053440      0.03343970      0.02662710       1
O               1.98088000     12.48580000      7.68727000      0.09213360     -0.07012620     -0.08492230       8
H               3.89004000     13.08830000      6.92857000     -0.06205070     -0.04213920      0.01339580       1
H               1.84169000     13.98530000      8.39814000     -0.03113230      0.09047990      0.06417660       1
O              19.74130000      1.23508000     11.63300000     -0.07189370     -0.15454900      0.13516000       8
H              19.83640000      1.35615000     13.64690000      0.00139583     -0.00942289     -0.08071710       1
H              20.36110000      2.59950000     11.09190000      0.07220460      0.16266700     -0.05574470       1
O              23.94720000     12.29550000     13.45740000      0.13075500      0.00590457     -0.11101500       8
H              23.99130000     13.49190000     11.94860000     -0.00401646     -0.02517540      0.04110700       1
H              22.57430000     12.47330000     14.31270000     -0.12516400      0.01816560      0.07019100       1
O              17.11320000     21.01790000      3.60429000      0.03300020      0.04234770      0.04442860       8
H              17.49110000     19.32540000      4.15307000      0.00195636     -0.00906813      0.01095560       1
H              18.24940000     22.19440000      4.95375000     -0.02983800     -0.03969520     -0.04052950       1
O              10.69910000      2.23050000      2.34689000     -0.02572240      0.00283412     -0.01384660       8
H               8.83618000      2.17192000      2.38486000      0.01888640      0.00336664     -0.00113573       1
H              11.10090000      1.96777000      0.56391900      0.00005679     -0.00453369      0.01592450       1
O               8.61358000     16.98860000      3.44250000      0.03155360      0.00829190     -0.02000500       8
H              10.45640000     16.63540000      3.05925000     -0.02791240      0.00043516      0.01461100       1
H               8.49428000     18.77490000      3.05165000     -0.00069499     -0.00861405      0.00290907       1
O              21.47660000      6.28345000     11.19500000     -0.10136600     -0.05731670     -0.11333700       8
H              22.62690000      6.75809000      9.97764000      0.02241120      0.01070840     -0.03622320       1
H              22.19300000      6.76897000     12.54710000      0.07230760      0.04763380      0.15195300       1
O              14.05120000     18.42880000     13.05390000     -0.00082664      0.00694569     -0.00501484       8
H              13.41830000     18.25910000     14.71670000     -0.02059860      0.01406460      0.02679570       1
H              14.50050000     16.69790000     12.98260000      0.01168970     -0.01760170     -0.02278300       1
O               2.69892000      7.09722000     19.59190000     -0.05941490      0.02260040     -0.00228076       8
H               0.74372500      7.65185000     19.82460000      0.07932070     -0.03405640      0.00871257       1
H               3.47467000      6.06527000     20.90830000     -0.02442560      0.00761311     -0.00389825       1
O              22.02420000     17.36040000     16.95380000      0.03605010      0.07290370     -0.04764520       8
H              20.71010000     18.54820000     17.57810000      0.00116657     -0.01251730     -0.00765647       1
H              23.01960000     18.59220000     15.52470000     -0.03731060     -0.05857470      0.05737120       1
O              13.19230000      9.42058000      7.73328000      0.03019520     -0.02960190     -0.09310730       8
H              12.92680000      8.49857000      5.69592000      0.01302460      0.04327190      0.07090290       1
H              11.73870000      9.30725000      8.70896000     -0.03653710     -0.00569136      0.01459060       1
O               6.84400000      0.93537300     21.28600000      0.05908180      0.04093380     -0.03396500       8
H               7.80807000      2.68099000     20.43760000     -0.03630910     -0.06270120      0.02450310       1
H               8.23392000     -0.33318600     20.87710000     -0.02087310      0.01833670      0.00704059       1
O              20.39950000     23.50180000      6.86631000     -0.00031835     -0.00320996      0.03882670       8
H              20.99420000     25.15150000      6.24307000     -0.00604235     -0.01091730      0.01206470       1
H              20.34310000     23.63270000      8.81462000     -0.00754455      0.00260652     -0.04309210       1
O              15.69020000      7.94460000     11.71040000     -0.06871260      0.01736160     -0.01267850       8
H              15.24760000      8.01469000      9.90269000     -0.01572990      0.00376153      0.00664229       1
H              17.29740000      7.40442000     11.60160000      0.08292650     -0.02492740      0.00857858       1
O              20.05960000     13.41760000      0.57021000      0.04468460      0.06620330     -0.23618100       8
H              19.27470000     15.03080000     -0.77481300      0.01899240     -0.05390780      0.08116190       1
H              19.65020000     13.13160000      2.08920000     -0.06355390     -0.00809428      0.15309800       1
O               1.24315000     11.07620000      0.62177300     -0.15643300     -0.26458400     -0.00086594       8
H              -0.28349200     11.74430000      0.82908000     -0.08333990      0.05009040      0.01275580       1
H               2.34018000     12.09520000      0.56993400      0.22768500      0.22126200     -0.01380860       1
O              22.66240000      8.34543000      6.35221000     -0.06595520     -0.04910430     -0.01736780       8
H              23.23500000      9.70337000      7.16395000      0.03124070      0.08229450      0.04763750       1
H              24.11100000      7.69396000      5.63092000      0.04417290     -0.02077610     -0.03031270       1
O              18.22900000     18.19010000     22.95770000     -0.01560210     -0.01803480      0.05930540       8
H              18.21250000     19.07100000     21.40920000     -0.00487926      0.02574770     -0.01978540       1
H              17.23680000     19.03780000     24.36750000      0.01799770     -0.01563220     -0.04502840       1
O              11.53720000     22.59970000     20.01940000      0.08073630      0.00116070     -0.01666960       8
H              12.97750000     22.76650000     21.62670000     -0.05023540     -0.00563777     -0.05763860       1
H              12.68620000     22.74100000     17.97850000     -0.03200950      0.00565177      0.06227920       1
