192
Lattice="24.77489 0.0 0.0 0.0 24.77489 0.0 0.0 0.0 24.77489" Properties=species:S:1:pos:R:3:force:R:3 TotEnergy=-1103.53364 cutoff=-1.0 nneightol=1.2 pbc="T T T"
O       24.40750000      21.11863000      16.92948000       0.08021970      -0.05499700       0.02692900
H       22.71900000      21.09388000      16.50848000      -0.05337930       0.00536249      -0.02184040
H        0.13101000      19.24478000      17.03998000      -0.01793920       0.04590010      -0.00497589
O        0.50372000      23.88091000      21.57140000      -0.01204790       0.04573990       0.07338790
H        1.67992000      24.26901000      20.38879000       0.06284540       0.05066000      -0.03381970
H        0.18322000      22.45111000      20.75310000      -0.05189420      -0.09499580      -0.03711100
O       14.40950000       0.61315700      16.77390000      -0.00662622      -0.03165230      -0.04514860
H       14.47510000       1.87415000      17.97940000       0.01093460       0.02374560       0.03931100
H       14.47290000      23.69917000      17.53000000      -0.00534162       0.01310320       0.00962939
O       19.40516000      14.97400000      22.14900000      -0.00209505       0.00563910       0.00617965
H       20.72212000      13.96009000      21.35200000      -0.00190894       0.00502863       0.00671875
H       19.97703000      16.33492000      23.28639000       0.00185074      -0.01321120      -0.01509040
O        5.16571000       7.84191000      19.02630000       0.06445370      -0.01359100      -0.04310080
H        6.74646000       8.30911000      20.06910000      -0.03306960      -0.00634702      -0.02863600
H        5.93016000       7.40021000      17.17920000      -0.03011700       0.02138540       0.06385750
O       18.54600000      10.96040000       8.21114000       0.00642404       0.00290732      -0.00281709
H       18.12220000      12.73530000       8.92250000      -0.01119210      -0.03709750      -0.03968210
H       17.60525000      10.05850000       6.78290000       0.00533368       0.03577750       0.02699900
O       21.44691000       4.09721000      14.01490000      -0.01773340      -0.05344290      -0.00260114
H       23.14741000       3.32021000      14.13230000      -0.01797190       0.00683922      -0.00879086
H       20.22291000       2.58381000      13.71540000       0.03304830       0.04568360       0.00628365
O        0.17125200      17.16838000       7.64580000      -0.02508620       0.07059230       0.03213820
H        1.43272000      17.63248000       9.06907000      -0.01741890      -0.02385740      -0.03200730
H       23.74913000      18.85588000       7.64823000       0.04243350      -0.05843890      -0.01181420
O        8.48321000      14.71328000      17.54020000      -0.03497030       0.01052820      -0.05948970
H        6.91511000      14.06568000      16.62050000       0.02559130       0.02514590       0.00207766
H        8.38001000      13.62078000      18.86470000       0.00625305      -0.04239360       0.06224950
O        8.72955000      21.48718000      23.82088000       0.01694080      -0.02744610       0.06375700
H       10.60050000      21.23708000      24.05128000      -0.03294140       0.01336410      -0.00184262
H        8.08757000      20.93348000       0.90249000       0.02118580       0.00848770      -0.06138670
O       10.46139000       2.52815000       9.59698000       0.02409570       0.02836310      -0.04462510
H       11.30169000       3.19296000       7.90924000      -0.01934980      -0.01779910       0.05898460
H       10.86239000       3.70440000      11.01140000       0.00140856      -0.01094280      -0.01907760
O       12.80709000       4.56801000       4.38712000      -0.00035622      -0.00570542      -0.02765130
H       11.09919000       5.14081000       3.87942000       0.02437940      -0.00561765      -0.00066723
H       13.82789000       3.98491000       2.79122000      -0.03147190       0.00853140       0.02990600
O       12.21070000      15.67418000       8.14999000      -0.01013240      -0.02404610      -0.04690350
H       12.37790000      15.38858000       6.18859000       0.00148467       0.01415810       0.04435510
H       11.07350000      14.28888000       8.53769000       0.00567849      -0.00028196       0.00259907
O        4.19451000      13.52190000      14.50751000      -0.03151560       0.05259530      -0.00429466
H        2.40021000      14.26380000      14.13721000       0.03753930      -0.03209450       0.02396500
H        4.18691000      11.77950000      14.20161000      -0.00784975      -0.02347480      -0.01127410
O       24.14147700       2.73553000       3.14649000      -0.02966130       0.05677690       0.00202972
H       24.57890800       1.08465000       3.13336000       0.01371250      -0.07517590      -0.00761609
H        0.78074100       3.45781000       3.94624000       0.01410300       0.01663210       0.00725760
O       18.22868000      24.01410000       6.90401000       0.00550028       0.01983830      -0.02910320
H       18.21728000       0.95131000       5.95301000      -0.00594065      -0.04224580       0.01764530
H       17.67878000      22.63850000       5.75841000      -0.00145335       0.02195970       0.01108570
O       15.63348000      12.07730000       0.55451000      -0.05130350      -0.00058842       0.07081910
H       15.21308000      11.10000000      23.97670000      -0.02305160      -0.03805320      -0.05737780
H       17.06498000      12.83420000       0.04511000       0.07004670       0.04122520      -0.02336130
O        2.39349000      17.24542000       2.77349000       0.00904290      -0.04569510      -0.06109250
H        2.12949000      16.75032000       4.44699000      -0.01172840      -0.00341562       0.04121240
H        2.08889000      15.55802000       1.84279000       0.00389256       0.03846220       0.02233890
O       19.68432000      21.36730000      14.73491000      -0.01788000      -0.02971010       0.03611410
H       19.15972000      22.63340000      13.45921000      -0.01905000      -0.00350358       0.02594760
H       18.42132000      20.67820000      16.11651000       0.02929980       0.02966440      -0.05865960
O        7.41122000       6.14719000       3.60785000       0.00415751       0.02411500       0.07449870
H        7.01772000       5.51779000       5.38057000       0.00224730       0.01222140      -0.04553340
H        7.08512000       4.92489000       2.40483000      -0.01289840      -0.04093330      -0.03061550
O        4.05861000      17.40320000      10.65219000      -0.03829000      -0.03055160       0.05045800
H        5.62441000      17.81890000       9.99679000       0.03980160       0.02212580      -0.02047600
H        4.46321000      16.22290000      12.05579000      -0.00916617       0.01101710      -0.02137870
O       11.34159000       4.61293000      14.44622000      -0.05020550      -0.11574200       0.02678570
H       12.25869000       6.01016000      14.29342000       0.06054320       0.09136200      -0.00629835
H       12.27199000       3.41739000      15.55482000      -0.01482550       0.01417500      -0.02209010
O        6.71315000       2.13258000      24.36157200      -0.01184280      -0.00692216      -0.05750090
H        6.36797000       2.32915000      22.42469000       0.00543643      -0.00019325       0.05446060
H        6.74392000       0.29628900      24.40212100       0.00690976       0.00990083       0.00630948
O       18.59981000       3.76411000       4.26251000       0.09377600      -0.03319030       0.00574436
H       18.11291000       5.36251000       4.83121000      -0.01098340       0.03363000       0.00789730
H       20.58941000       3.78878000       4.41051000      -0.06124010      -0.00238298      -0.00881363
O       23.63968000      11.91032000       7.00751000      -0.01437210       0.05291210      -0.00726836
H       21.87595000      11.39042000       7.30151000       0.00542292       0.00018690      -0.00046247
H       23.49404000      13.88862000       7.00771000       0.01345620      -0.05502470       0.00760843
O        9.75424000       8.39371000       9.77376000      -0.06455940       0.02659530       0.00879589
H        8.93312000       9.75001000       8.57779000       0.02543070      -0.03422470       0.03273910
H        8.27873000       8.03111000      11.09320000       0.04914260       0.00771310      -0.03728050
O        9.23439000      19.73910000      18.57210000      -0.00506424      -0.03580340       0.09147760
H        8.97879000      17.86450000      18.63950000       0.00197095       0.01886600      -0.02758870
H        9.09579000      19.80540000      20.61130000      -0.00625011       0.02201330      -0.06429810
O        7.08281000      11.00011000       1.93992000       0.03585840      -0.07149210       0.03943820
H        6.61101000       9.23221000       2.76392000       0.02906220       0.04381490      -0.02329390
H        5.50181000      11.51221000       1.53372000      -0.06395700       0.03062110      -0.01595240
O       14.02950000       9.36351000      20.89740000       0.01155010      -0.02516750      -0.01142300
H       14.30960000      10.35191000      19.42160000      -0.00037284       0.01866250      -0.00753446
H       14.69470000       7.65191000      20.27440000      -0.01694060       0.01910600       0.02375000
O        4.96517000      22.85578000      15.81670000      -0.03538350      -0.04902210      -0.00201168
H        3.13969000      22.02728000      15.96200000       0.06339140       0.01445700      -0.00765993
H        6.25764000      21.48488000      15.46210000      -0.03549990       0.02824940       0.01618340
O        0.60204700      21.85270000       1.99873000       0.01361850       0.02039360      -0.08709230
H        1.40428000      20.28190000       2.38356000       0.00646462      -0.01710530       0.00661350
H        1.13489000      22.03550000      24.75948300      -0.02658060       0.00589408       0.08161980
O        1.31274000       1.55996000      13.57450000      -0.04031990      -0.00202610       0.16260900
H        2.28355000       0.94443900      12.40690000       0.07112340      -0.04764260      -0.10887800
H        2.00268000       0.37305100      15.09080000      -0.03514370       0.05659560      -0.05834050
O       15.68258000       4.80852000      20.25688000      -0.03662240       0.04576320      -0.17320200
H       17.29508000       5.20112000      19.65188000       0.03979250       0.00166882      -0.00232497
H       15.58608000       4.30632000      21.77498000       0.00231761      -0.05530580       0.16867200
O        5.60343000       4.47872000       8.95899000      -0.12255100       0.00931449       0.00913897
H        7.10074000       3.73602000       8.83109000       0.10440600      -0.04046220       0.00072784
H        4.48733000       2.96142000       9.10819000       0.01053350       0.02449020      -0.00957715
O       12.50328000      16.06441000       2.88635000      -0.05573940       0.03867140       0.02231760
H       12.91628000      14.80361000       1.65687000      -0.00893008      -0.00639737      -0.00636083
H       10.62228000      16.88571000       2.89278000       0.05889610      -0.03375690      -0.01234820
O       13.64400000       8.91601000      13.66270000      -0.04023490       0.02585430      -0.03254770
H       15.29040000       8.63291000      12.80690000      -0.00429325       0.00201734       0.00510926
H       12.25150000       9.33131000      12.32620000       0.04147710      -0.01758410       0.02579460
O        7.48319000      12.36039000       7.32011000       0.05266950       0.01305110       0.03734650
H        7.44009000      12.46529000       5.58138000      -0.00996298      -0.00231793      -0.04741490
H        5.92209000      12.05569000       8.06889000      -0.04225230      -0.00853844       0.00810948
O        4.58618000       2.00807000      19.27370000      -0.00312690      -0.07108870       0.00386394
H        4.82838000       0.49141100      18.06130000       0.00840222       0.05094370       0.01765170
H        4.70668000       3.66738000      18.67790000       0.00220669       0.02116160      -0.02199700
O        3.31599000      10.18999000       9.57031000      -0.03896560       0.09224540      -0.01781140
H        3.78409000       8.61139000       9.81681000       0.03123650      -0.10015500       0.01348120
H        1.66289000      10.13769000       8.75361000       0.00680609       0.00964418       0.00423755
O       16.28290000      19.25830000       4.88491000       0.05566970       0.03101050       0.06527330
H       16.47440000      18.50520000       6.61401000       0.00460627       0.01344080      -0.02493800
H       15.23380000      18.11440000       4.17701000      -0.05447350      -0.04586840      -0.03993640
O        2.79669000      23.99906500       8.48931000      -0.01323090      -0.06544630      -0.01217220
H        4.04649000      22.52001000       8.68311000      -0.03787400       0.04220190      -0.00582651
H        1.07669000      23.11291000       7.82111000       0.05391490       0.02787670       0.02704880
O       18.37561000       8.30678000      12.50131000       0.03609160      -0.01258660      -0.01629760
H       19.53661000       6.90389000      13.06131000      -0.02044270       0.02699900      -0.01566740
H       19.03611000       9.10228000      10.87451000      -0.01583450      -0.01654440       0.02884130
O       16.81721000      17.14568000      17.94483000      -0.03867080      -0.03706530      -0.02743730
H       17.98709000      16.44568000      19.14133000       0.00213948      -0.00365909       0.01175210
H       15.63825000      15.54138000      17.39311000       0.03166030       0.04630510       0.01351070
O        6.75112000       6.65609000      13.65499000      -0.05320410      -0.05990700      -0.03190440
H        7.94982000       5.36259000      14.25149000       0.00468146       0.01392930      -0.00451157
H        5.51582000       5.45199000      12.47519000       0.04852540       0.05082890       0.04275230
O       10.96040000      22.74142000      11.98350000      -0.00582246      -0.01853380       0.00860595
H       10.92920000      24.31788400      11.02380000      -0.00617759       0.00424133       0.01055370
H       10.22220000      22.86603000      13.66620000       0.01085530       0.01228400      -0.01879130
O       15.11688000      22.60904000      24.24951000       0.00416371      -0.03647700       0.00458908
H       14.69488000      22.08143000      22.48461000       0.00784233       0.00950991       0.01217440
H       15.90918000      21.03650000       0.14762000      -0.01057210       0.03503690      -0.00826822
O       13.58940000      13.36999000      16.82797000      -0.04179040      -0.02237590      -0.03451350
H       11.72560000      13.86659000      16.94954000       0.03818070      -0.00682330      -0.00303138
H       13.58300000      12.05209000      15.37453000       0.00696275       0.02407630       0.03398420
O       21.08410000      17.31060000      12.02900000      -0.05250750       0.00355747       0.06955080
H       20.50950000      18.92440000      12.89040000       0.00920226      -0.02028300      -0.01135480
H       22.24080000      17.66200000      10.82730000       0.04629840       0.01375470      -0.04991220
O       14.14790000      21.20690000      19.62881000      -0.01480700      -0.04325010      -0.01819780
H       12.41840000      20.49780000      19.47290000       0.00222869       0.02097250      -0.00375589
H       14.95440000      19.60160000      18.98654000       0.01548260       0.01470940       0.00927513
O       23.07570000      21.75261000       6.92001000      -0.00032382       0.01893510      -0.01161000
H       21.60590000      22.85231000       7.03261000      -0.01605320      -0.00052383       0.01622130
H       23.45110000      22.04651000       5.16041000       0.00921131      -0.01157270      -0.00889733
O       16.26363000       8.34743000       4.06792000       0.05417400       0.00050253       0.04464650
H       15.84732000       9.31960000       2.69043000      -0.01075310       0.03475040      -0.03968710
H       15.01341000       7.15819000       4.36938000      -0.04380230      -0.02707150       0.00754815
O       17.27120000       0.50579000      12.33110000      -0.02518880      -0.00577434       0.04714280
H       16.79540000       0.05139000      10.70870000      -0.00084418      -0.00687342      -0.04756540
H       15.67490000       0.11529000      13.29300000       0.03247690       0.01597020      -0.00401719
O       24.00842600      14.97380000      15.60341000       0.03506190       0.02965150      -0.01013830
H       23.33450000      13.58400000      16.47251000      -0.01851430      -0.02392420       0.01693520
H       22.74657000      15.77310000      14.58601000      -0.01157640      -0.00131149      -0.01053180
O       19.84311000      19.21131000       0.53770600       0.06320790       0.00575352      -0.00084732
H       21.64601000      19.42191000       1.17327000      -0.04060270       0.00185178      -0.01839430
H       19.03301000      18.59911000       1.99629000      -0.01727440      -0.00601586       0.02478580
O       22.10150000      11.53670000      19.07028000      -0.00256745      -0.06019360       0.00229293
H       23.74670000      11.15080000      19.93448000      -0.03210400      -0.00445082      -0.01131350
H       21.22310000       9.70792000      18.78418000       0.03559920       0.05898080       0.01445670
O        7.61669000      18.55821000       3.35258000       0.01231180       0.02424370       0.05986270
H        6.06869000      17.66801000       2.77461000       0.00807780       0.01594770       0.02635800
H        7.67609000      19.28761000       5.35430000      -0.01338680      -0.03862340      -0.07757610
O        8.30564000      19.11758000       9.06861000      -0.04097100      -0.07311060      -0.06395420
H        8.97437000      17.33988000       9.06411000       0.00947561       0.04637220       0.00389441
H        9.04588000      20.24968000      10.13361000       0.04555130       0.03671540       0.04404320
O        1.39328000      11.87601000       2.21493000       0.00964834       0.12931300       0.13470700
H        0.39609200      11.60251000       3.77587000       0.00562364      -0.00842671      -0.02053410
H        1.38384000      10.80281000       1.01500000      -0.01959510      -0.11704600      -0.11486100
O       17.15956000      15.87010000       9.29604000      -0.06342430      -0.01711580       0.00467978
H       15.20662000      15.65252000       9.68558000       0.05762160       0.00618540      -0.01499470
H       18.13678000      15.80780000      10.82180000       0.00310605       0.01349470       0.00733504
O       20.59153000       6.19195000      18.78250000       0.00867985      -0.00741584       0.06084930
H       21.56560000       5.01148000      19.95100000      -0.02551290       0.03057410      -0.01081310
H       21.11367000       5.61889000      17.22010000       0.00687823      -0.01422210      -0.05410670
O        0.90321000       9.00019000      22.37491000      -0.11044100      -0.02979990       0.05069560
H       24.75320000       7.26579000      22.48359000       0.04011720       0.04923590      -0.01018660
H        2.43361000       8.97839000      21.65069000       0.07151820      -0.02199320      -0.04276650
O       22.66180000       3.69691000      22.66021000       0.04984870      -0.00828573      -0.15349100
H       22.42470000       3.40506000      24.23611000      -0.02575210      -0.01889250       0.15024000
H       23.66740000       2.16561000      22.13801000      -0.01662230       0.02477030       0.00526042
O       15.74190000       3.13251000       0.41422000      -0.05662090      -0.02620020      -0.03028450
H       17.21350000       3.51491000       1.25102000       0.04558380       0.00979007       0.02756610
H       15.58160000       1.27491000       0.46062000       0.00168122       0.00966080      -0.00658742
O        9.03789000      10.46390000      21.57600000      -0.01882190       0.01419790      -0.11354500
H       10.75799000      10.16770000      21.38390000       0.04480460      -0.01466860       0.00739336
H        8.42689000      10.43530000      23.12060000      -0.02541340      -0.00070613       0.11051800
