192
TotEnergy=-1103.29034000 cutoff=-1.00000000 nneightol=1.20000000 pbc="T T T" Lattice="24.70271000       0.00000000       0.00000000      -0.00000100      24.70271000       0.00000000      -0.00000100      -0.00000100      24.70271000" Properties=species:S:1:pos:R:3:force:R:3:Z:I:1
O              22.50580000     -5.41883000    -32.26710000     -0.02439150     -0.00374191     -0.00574355       8
H              20.76890000     -5.80560000    -32.84170000      0.00947401      0.02301860      0.00266076       1
H              22.99520000     -7.08239000    -31.84780000      0.01615040     -0.01929730      0.00391211       1
O              51.13980000     48.37220000     -2.36444000     -0.01164420      0.08400050      0.13824400       8
H              52.78900000     48.91570000     -1.73535000     -0.01354810      0.00016766     -0.00593621       1
H              51.47590000     47.46600000     -3.67264000      0.02278780     -0.07717820     -0.12613700       1
O              13.53480000      1.79145000     16.10390000     -0.05987700     -0.07705930     -0.06844550       8
H              14.20670000      2.51284000     17.49670000      0.03349330      0.01842420      0.07082920       1
H              12.79980000     -0.02736700     16.41420000      0.02383580      0.05913330     -0.00298717       1
O              -5.14828000    -10.09740000      0.06749500      0.08961300     -0.13008000     -0.02560570       8
H              -3.55076000    -11.00000000     -1.23915000     -0.08046480      0.04996460      0.05078530       1
H              -5.64117000     -8.49629000     -0.32424200     -0.00610756      0.06747530     -0.03054060       1
O               5.74383000     32.74510000     20.23330000      0.03666050      0.02578720      0.11592200       8
H               6.99144000     34.05330000     21.24390000     -0.03802730     -0.04330820     -0.06054530       1
H               5.55829000     32.96360000     18.54540000      0.00785284      0.01821620     -0.06511390       1
O              -5.16186000     10.02320000      7.84552000      0.00871553      0.05442790      0.01004510       8
H              -5.53795000     12.00540000      7.99889000     -0.01316020     -0.06436750     -0.02234770       1
H              -6.08456000      9.10924000      6.53036000     -0.00273339      0.01086240     -0.00399254       1
O              46.26300000     28.70180000     14.46400000     -0.02882720      0.01132300     -0.00040773       8
H              47.68210000     27.71070000     14.03280000      0.04016600      0.00115228     -0.00059999       1
H              45.10250000     27.41110000     13.93310000     -0.02811660      0.00076585      0.00897335       1
O               0.29299700    -31.64770000      8.06352000      0.00442804      0.04608460     -0.00727010       8
H               1.81262000    -30.85640000      8.99483000     -0.02225530     -0.02198480     -0.01754880       1
H              -0.59658200    -30.10370000      7.19237000      0.01396690     -0.02761390      0.02329460       1
O              32.97590000    -34.66680000     17.16190000     -0.08436330     -0.02934080      0.00904312       8
H              31.01830000    -35.08640000     16.30640000      0.08155030      0.01317180      0.02681910       1
H              33.00250000    -35.46070000     18.93680000      0.00485277      0.01020740     -0.04296740       1
O               7.49132000    -27.10540000    -26.70770000      0.00479087     -0.01418260      0.00512108       8
H               9.45706000    -27.42560000    -26.52300000     -0.05663880     -0.00177602      0.01736440       1
H               6.30321000    -27.93320000    -25.40770000      0.05814730      0.01505030     -0.02140460       1
O             -13.38590000      3.86946000      8.55702000     -0.09790920     -0.07426110      0.03085520       8
H             -12.70330000      4.06099000      7.05341000      0.06028760      0.02829840     -0.09282350       1
H             -12.93030000      4.66773000      9.97406000      0.03347930      0.05443230      0.06372410       1
O             -11.49820000     29.29590000     53.21140000      0.15845300     -0.11083000      0.01289790       8
H             -12.92810000     30.00390000     52.93780000     -0.14155300      0.05946620     -0.04254620       1
H             -11.02430000     27.71760000     52.09080000     -0.01239040      0.04402190      0.02249990       1
O              12.38740000    -34.86740000    -16.03960000     -0.04040990     -0.07985680      0.03786150       8
H              12.39280000    -36.05520000    -17.55000000      0.00840615      0.03061680      0.01659180       1
H              11.61290000    -36.23490000    -14.64930000      0.03974710      0.06246020     -0.04709010       1
O              28.93810000     14.12140000     38.21070000     -0.06393980      0.02751660      0.07248180       8
H              27.19000000     13.82150000     39.14960000      0.04846960      0.02109490     -0.01806620       1
H              28.82030000     12.72810000     37.19710000      0.01130630     -0.04660510     -0.04292770       1
O               0.65946600      2.23239000      2.89118000      0.03335220     -0.04404830     -0.07295680       8
H               1.38083000      2.48360000      1.05220000     -0.01297480     -0.00396405      0.07046710       1
H               0.69260300      0.30010500      2.93165000     -0.00551728      0.04873260      0.00748378       1
O             -32.39410000     25.20040000     32.96010000     -0.06656820      0.02316290     -0.05825780       8
H             -33.16000000     26.70290000     31.91160000      0.03815580     -0.04067900      0.03643480       1
H             -33.89930000     24.04570000     32.58790000      0.03673700      0.01682180      0.02327540       1
O             -33.57200000     11.03330000     24.98890000      0.06328090      0.03952700      0.03783710       8
H             -34.12350000     11.01360000     23.29680000      0.00024865     -0.00402697     -0.02480530       1
H             -31.81330000     12.15220000     25.06420000     -0.06165840     -0.02496050     -0.01297910       1
O             -22.60030000     66.67110000    -21.60190000     -0.02512880      0.05556310      0.08162840       8
H             -23.13440000     66.28760000    -19.71230000      0.01245940      0.03104910     -0.04299540       1
H             -22.57350000     65.03610000    -22.06260000      0.00735596     -0.08526880     -0.04324950       1
O              67.48180000     19.15660000     38.88820000     -0.07665470      0.00567743     -0.00250156       8
H              67.75670000     20.85040000     38.24050000      0.00128361     -0.00054399      0.00689715       1
H              65.46180000     19.12740000     39.00580000      0.07935790     -0.00636503      0.00311562       1
O              57.23780000    -19.19540000      2.69010000      0.10641800      0.11581900     -0.27567000       8
H              56.68290000    -19.91190000      3.92440000     -0.10804600     -0.12855800      0.20336500       1
H              56.84940000    -20.03590000      0.84806600     -0.00625970      0.01718370      0.07118760       1
O              29.46330000     18.76690000    -14.23650000     -0.03247460     -0.01213470      0.02388560       8
H              31.02350000     18.52200000    -15.15240000      0.00926278     -0.00044812      0.00483366       1
H              29.13230000     17.45180000    -12.91300000      0.01689470      0.01832850     -0.02640680       1
O             -13.96990000      6.07746000     62.68800000      0.02597430      0.04493380      0.08520170       8
H             -14.20980000      7.93121000     63.61730000      0.01282880     -0.07113600     -0.05157520       1
H             -12.73520000      5.17746000     63.93740000     -0.03898300      0.01767240     -0.03710420       1
O               5.76217000      2.82894000     -1.16458000     -0.05391160      0.08207030     -0.06678660       8
H               5.53772000      3.38202000     -3.16452000      0.00973488     -0.02729150      0.07393890       1
H               7.01622000      1.67532000     -1.13266000      0.05219900     -0.06120700     -0.00711818       1
O              44.98540000      2.94474000     27.44970000     -0.06420060      0.03972130      0.01508370       8
H              44.36230000      4.72868000     27.76710000     -0.00894681     -0.03345640     -0.00289948       1
H              46.61020000      3.42180000     27.09310000      0.06136860     -0.00908358     -0.00946892       1
O              -0.04129800     60.73100000     32.59040000     -0.03180540      0.03365890      0.00024515       8
H              -1.88746000     59.90570000     32.61600000      0.04545820      0.03604940     -0.00178919       1
H              -0.05852500     62.70110000     32.82800000     -0.01133700     -0.07009200     -0.00497404       1
O              10.33370000     36.04310000     12.70370000      0.00525826      0.01587830      0.03497650       8
H               9.14169000     36.36010000     11.28460000     -0.00894042     -0.00273656      0.01688210       1
H               9.98207000     36.99000000     14.32850000     -0.00785157     -0.01031170     -0.04296150       1
O             -18.02000000     19.87060000     17.80230000      0.02045160     -0.05421390      0.02688950       8
H             -17.63080000     17.89780000     18.04460000     -0.00819334      0.06167180     -0.01537740       1
H             -17.68630000     20.59360000     19.49000000      0.00110433     -0.00250241     -0.00577710       1
O              32.67740000     35.47460000     51.15340000     -0.01238960      0.04222910      0.00916948       8
H              32.30840000     33.69500000     51.14170000     -0.01308800     -0.00636333      0.01244110       1
H              31.24620000     36.57560000     51.82760000      0.02231210     -0.03947040     -0.02259980       1
O              14.64530000     33.83210000     20.26740000      0.00513066     -0.04684170     -0.00671454       8
H              15.01950000     34.05560000     18.46500000      0.00318283      0.00176038      0.01040360       1
H              15.11630000     31.97040000     20.64520000     -0.01290430      0.04446670     -0.01200250       1
O               2.17674000    -27.18350000     17.26700000      0.00498606     -0.03168300      0.01758540       8
H               0.77015800    -28.49340000     17.51530000      0.03243170      0.03238940     -0.01292270       1
H               3.91940000    -27.96190000     17.62530000     -0.04230900      0.00230867     -0.01742260       1
O              -1.09461000     21.26630000      1.26089000      0.02676990     -0.04588270     -0.00930125       8
H              -0.08741000     19.55430000      1.34457000     -0.02272460      0.05269570      0.00048448       1
H              -0.26507100     22.35310000     -0.03344900     -0.00506642     -0.01641320      0.00696765       1
O               0.84804300      1.78893000     13.10390000     -0.07412560      0.19169800     -0.03844330       8
H               1.06988000      1.30110000     11.50730000      0.00771667     -0.00861272     -0.09678570       1
H               1.40270000      0.51490100     13.78770000      0.08338620     -0.19572300      0.13095200       1
O             -33.46330000     52.91940000    -28.83000000     -0.02305830     -0.00797830      0.04813250       8
H             -31.73780000     53.56240000    -28.66750000     -0.00278600     -0.00759525     -0.00378453       1
H             -34.04510000     52.16470000    -27.12160000      0.02852680      0.02174520     -0.04630780       1
O               6.00606000     54.28340000    -16.69190000      0.07302490     -0.08686580      0.01550150       8
H               8.02890000     53.88950000    -16.23110000     -0.06672790      0.02691520     -0.01601070       1
H               5.58640000     52.37540000    -16.68850000     -0.00526186      0.05006090     -0.00277726       1
O             -36.89180000     36.89720000      4.23592000     -0.04405130      0.03321900      0.09225490       8
H             -35.99070000     36.45360000      2.90814000      0.06850010     -0.02771340     -0.08952520       1
H             -38.45750000     36.09830000      4.01937000     -0.02510120     -0.00929121     -0.01061260       1
O              15.87290000     35.62440000     15.05610000     -0.03712790      0.00956298      0.00139479       8
H              17.36890000     35.05580000     14.14380000     -0.00302850     -0.00531492     -0.00823245       1
H              14.31420000     35.76260000     13.99980000      0.03919580     -0.00812587      0.00832076       1
O             -17.62440000    -13.23930000      8.80770000     -0.00233490     -0.02031530      0.00500605       8
H             -17.05870000    -13.24440000      7.05958000     -0.00899101     -0.00863769      0.01662060       1
H             -18.56280000    -14.86270000      9.32981000      0.01036390      0.02994800     -0.01887610       1
O             -45.91340000      2.57326000     18.89460000      0.03380210      0.14495000      0.03803260       8
H             -46.31670000      1.29972000     17.92280000     -0.03468020     -0.10450300     -0.06055830       1
H             -45.60510000      4.01757000     17.56490000     -0.00044172     -0.03841190      0.03410140       1
O             -21.20030000    -16.33630000     35.29880000      0.02080980     -0.02142470      0.00907911       8
H             -21.03090000    -17.88120000     34.30530000      0.00821210      0.00362053      0.00445285       1
H             -22.43950000    -15.41940000     34.41940000     -0.02924510      0.02246970     -0.01298130       1
O              15.49760000     17.65130000     27.69030000      0.00457781     -0.07239670      0.01840600       8
H              15.29600000     17.29920000     29.53270000      0.00590213      0.01091210     -0.02688750       1
H              15.97730000     15.82810000     27.08970000     -0.01759980      0.05716020      0.01647370       1
O             -21.16200000     -0.83941100     33.23420000      0.14215500      0.04050460      0.05133440       8
H             -20.57010000     -2.25366000     34.18770000     -0.00079910     -0.00816683      0.00261146       1
H             -22.66780000     -1.10436000     32.70960000     -0.14295900     -0.03063160     -0.05368660       1
O              44.95450000      9.01133000     37.29000000     -0.00205918     -0.00578528      0.00683067       8
H              45.45570000      7.23529000     37.57380000     -0.00667256      0.01826280     -0.00595085       1
H              44.47630000      9.32158000     35.50380000      0.00856007     -0.01434710      0.01235030       1
O              -9.30663000    -29.82100000     -4.34593000      0.00175701     -0.00927195      0.01092190       8
H              -7.90341000    -30.26900000     -3.15911000     -0.02121470      0.00265534     -0.01961840       1
H             -10.23900000    -31.24250000     -5.06149000      0.01940140      0.00656701      0.00439267       1
O              54.67520000    -19.22280000     -9.37780000     -0.00372700      0.01027090     -0.00428738       8
H              56.30900000    -19.12380000    -10.06140000      0.05126170     -0.00673255      0.01588770       1
H              54.04470000    -18.99790000    -11.02860000     -0.04511750      0.00466465     -0.01557090       1
O              12.10370000     -1.00903000      9.91484000      0.00418572     -0.01659800      0.04675860       8
H              11.64690000      0.66331400      9.32537000     -0.00189866      0.00212263      0.01080910       1
H              12.12950000     -1.06984000     11.87890000     -0.00856822      0.00437572     -0.05969870       1
O             -36.96310000     -3.29054000     48.66850000     -0.05244470      0.07219710      0.06436700       8
H             -36.20030000     -4.37584000     47.61880000      0.05176340     -0.05746100     -0.05832210       1
H             -37.07480000     -3.95687000     50.34800000      0.00006498     -0.00826242     -0.00339053       1
O              13.75950000     -8.16505000     -8.38557000      0.03731960     -0.03753120      0.00262612       8
H              15.10360000     -9.58958000     -8.27236000     -0.04184040      0.03811190     -0.00925434       1
H              12.24820000     -8.93223000     -9.03107000      0.00071118     -0.00481270      0.00505804       1
O              21.47990000     15.56870000     11.36200000      0.04490230      0.04900680      0.00850153       8
H              21.32810000     16.52520000     13.06540000     -0.00030831     -0.02134020     -0.06004870       1
H              22.65220000     16.68290000     10.08790000     -0.03021570     -0.03101920      0.04751760       1
O              10.98460000     21.84060000     -9.77579000      0.00833947      0.02708780     -0.00403949       8
H               9.45461000     21.46580000     -8.93704000     -0.02939000      0.00423702      0.01276820       1
H              11.60060000     20.20350000     -9.92566000      0.02397360     -0.02990080     -0.00511753       1
O              22.83330000     46.78120000     30.87480000     -0.09686150      0.00913367     -0.00547158       8
H              20.81450000     47.33430000     31.43450000      0.09392650     -0.02283050     -0.02438810       1
H              22.63770000     46.32300000     28.99320000      0.00882019      0.01793240      0.03365340       1
O              -7.26226000      7.49190000      3.75090000     -0.02672630     -0.03393290      0.01491210       8
H              -7.64117000      8.83090000      2.57862000     -0.00681532     -0.00144127     -0.00937807       1
H              -8.86969000      6.34673000      3.80640000      0.03491980      0.03345680     -0.00331199       1
O              17.85530000    -24.66160000     13.64670000     -0.03258450      0.02570430     -0.06569430       8
H              17.60200000    -24.31800000     11.74360000      0.02079590     -0.01596680      0.03386130       1
H              16.17800000    -23.90110000     13.99190000      0.01576270     -0.00901614      0.02599470       1
O              -0.66340100     13.96330000     41.17120000     -0.02361010     -0.00700974     -0.05110430       8
H              -1.46040000     13.20520000     42.60100000     -0.00325986     -0.01229630      0.01904590       1
H              -1.83339000     13.28840000     39.81550000      0.02850510      0.01537720      0.02106100       1
O              43.17230000     44.35110000     -0.31173000      0.00786199     -0.00731270      0.05599840       8
H              44.94940000     44.67250000      0.35107400     -0.03839800     -0.00039573     -0.01518660       1
H              41.98320000     43.90890000      1.28514000      0.03911070      0.01523710     -0.04184460       1
O              22.00030000     11.32660000    -29.08850000     -0.07367000      0.09229860     -0.02195010       8
H              23.50980000     10.88610000    -28.55140000      0.10773000     -0.03652480      0.04380650       1
H              21.14290000      9.85538000    -29.35000000     -0.03602280     -0.05464420     -0.01343380       1
O             -18.26350000     44.68280000      2.66476000     -0.01352130     -0.01819290      0.05300070       8
H             -19.91730000     43.64280000      2.69721000      0.03916780      0.02094810      0.01103960       1
H             -17.56210000     44.71400000      4.50933000     -0.02512410     -0.00394323     -0.05869100       1
O               9.36009000    -30.15920000     33.07560000      0.01521450     -0.00055318      0.00077961       8
H              10.14580000    -31.83780000     33.47310000      0.00563867      0.03383010     -0.01071850       1
H              10.47090000    -28.60870000     33.32310000     -0.01647150     -0.03736840      0.00635710       1
O               2.51531000     36.83310000      2.27533000     -0.00879468      0.01365790      0.11703000       8
H               1.70769000     36.15500000      4.06188000      0.02728980      0.02130750     -0.07394760       1
H               2.05986000     35.78600000      0.95488200     -0.01742540     -0.03753010     -0.03672560       1
O              -6.97756000     -9.67839000      8.30000000      0.10156800     -0.01992530     -0.02592950       8
H              -8.55365000     -9.57562000      8.99760000     -0.04667330     -0.00500296      0.03670870       1
H              -5.37079000     -9.97005000      9.49897000     -0.05826970      0.03441240     -0.00671799       1
O              -4.19598000      5.87677000     19.31800000     -0.00955394      0.00761921     -0.03744030       8
H              -2.83007000      5.63931000     20.47580000      0.01339280     -0.01104770     -0.00452965       1
H              -3.67761000      5.41674000     17.50700000     -0.00623413      0.00105796      0.04115020       1
O              26.17410000    -15.39020000     -2.04156000      0.02582920     -0.00101285     -0.02902500       8
H              25.76510000    -17.19100000     -2.09481000     -0.01128120      0.00210755      0.01222500       1
H              27.65770000    -15.51600000     -3.24650000     -0.01615840      0.00738631      0.02348930       1
O              24.56830000      4.61784000     46.90390000      0.09256300      0.01333250     -0.08671750       8
H              24.36650000      3.38047000     48.01730000     -0.03300900     -0.06456200      0.06728760       1
H              26.29660000      3.56924000     45.98750000     -0.06365250      0.04150220      0.00473589       1
O              15.87580000     25.66670000     50.40590000      0.00765494      0.05777470      0.02640230       8
H              17.69440000     25.72790000     50.95530000     -0.02530480     -0.01285390     -0.01629290       1
H              14.95650000     24.33330000     49.71090000      0.00711530     -0.04132700     -0.01062700       1
O             -14.76950000     11.61420000     21.29680000     -0.00486556     -0.02215380      0.06048960       8
H             -13.29960000     10.43430000     20.83270000     -0.02605520      0.02474030      0.02054470       1
H             -15.22050000     11.57910000     23.33570000      0.02426520     -0.00363925     -0.07144820       1
