192
TotEnergy=-1103.35840000 cutoff=-1.00000000 nneightol=1.20000000 pbc="T T T" Lattice="24.36839000       0.00000000       0.00000000      -0.00000100      24.36839000       0.00000000      -0.00000100      -0.00000100      24.36839000" Properties=species:S:1:pos:R:3:force:R:3:Z:I:1
O              23.80070000     -3.59474000    -29.28200000     -0.02056780     -0.02000620     -0.00057073       8
H              21.91010000     -3.70543000    -29.26500000      0.03843020     -0.00469327     -0.01594750       1
H              24.62300000     -5.06555000    -30.20950000     -0.01966810      0.01340690      0.01861110       1
O              47.63230000     45.56750000      0.82087200      0.01317880      0.01799960     -0.02042300       8
H              48.16170000     47.26700000      1.33168000     -0.00906708     -0.00443946      0.01387630       1
H              48.29380000     45.67550000     -0.90749500     -0.00691184     -0.01623860      0.00657524       1
O              10.35080000      2.17804000     15.31830000      0.02775030      0.08186350     -0.02196060       8
H              11.81420000      2.67541000     16.31070000     -0.00223990      0.02278860     -0.00060715       1
H              10.23630000      0.63455600     15.96400000     -0.02901790     -0.10324700      0.03027360       1
O              -5.19049000     -9.22876000     -4.37426000     -0.00523299      0.02391170      0.03285830       8
H              -4.05573000    -10.40790000     -5.21091000      0.01275850      0.01213800      0.02536840       1
H              -4.73502000     -8.11634000     -2.70163000     -0.00845951     -0.04172700     -0.05359920       1
O               5.25508000     32.35990000     18.35910000      0.07211580      0.01535140     -0.03199310       8
H               6.60747000     33.09520000     19.63520000     -0.04817460     -0.02200710     -0.02288660       1
H               6.41390000     32.28880000     16.78890000     -0.04436630     -0.00362953      0.03803040       1
O              -3.54293000      7.77621000      6.88086000     -0.08301300      0.01784180      0.04780260       8
H              -4.63027000      7.95061000      8.72517000      0.04884600     -0.00687956     -0.07381590       1
H              -4.98184000      7.79726000      5.57615000      0.03864670     -0.00512584      0.02705790       1
O              44.73220000     25.05920000     13.92470000     -0.06694190     -0.00367416     -0.02566150       8
H              46.26950000     24.89270000     14.87250000      0.01764680     -0.00833734     -0.03279250       1
H              43.97800000     24.45020000     12.18980000      0.04681230      0.00630350      0.04382990       1
O              -0.80784600    -28.16280000      8.84577000     -0.04242410      0.07406320      0.04317090       8
H              -0.53829600    -29.51540000      7.84200000      0.01212570     -0.06007110     -0.04820330       1
H              -2.45317000    -27.43600000      8.30842000      0.02299040     -0.00794622      0.00978850       1
O              33.02900000    -34.95060000     18.83250000      0.04362850      0.13587300     -0.10519800       8
H              34.42860000    -33.86620000     19.44130000     -0.02363900     -0.02351740     -0.01184060       1
H              32.77150000    -36.10060000     19.93430000     -0.01966060     -0.11161100      0.11038300       1
O               9.51530000    -28.39280000    -24.68270000      0.03101850      0.10021500     -0.11716600       8
H              11.19570000    -28.63170000    -25.40700000     -0.00668689     -0.00794811      0.01235490       1
H               9.13147000    -29.43860000    -23.49510000     -0.02154280     -0.09595530      0.10287300       1
O              -8.63859000      3.49057000      8.29482000     -0.02729460     -0.00916090      0.00100411       8
H              -9.09258000      3.61427000      6.52813000      0.00638960      0.00876230     -0.01021930       1
H             -10.26490000      2.77791000      8.93337000      0.01877640      0.00397365      0.00968503       1
O             -10.94670000     28.69000000     52.29940000      0.00283257     -0.01605270     -0.03361770       8
H             -12.67610000     28.35820000     52.70330000     -0.02236400      0.00935271      0.01815600       1
H             -11.12630000     27.88910000     50.61720000      0.02178590      0.00790645      0.01452520       1
O              13.17490000    -28.74920000    -13.98320000      0.03697500     -0.02343240     -0.13578900       8
H              14.69910000    -29.69430000    -15.24830000     -0.05134980      0.03393860      0.05131600       1
H              13.79060000    -29.03690000    -12.42250000      0.02317540     -0.01390160      0.08025360       1
O              28.01350000     14.81860000     37.37750000     -0.05117580      0.02644320     -0.00979863       8
H              26.74430000     13.59170000     36.66980000      0.00221178      0.01491460     -0.00226956       1
H              29.19980000     13.60570000     37.67800000      0.05347860     -0.03680240      0.01589520       1
O              -0.04538700      2.03231000      2.28576000      0.02661780      0.03187210      0.04837890       8
H               0.43216100      2.75940000      4.07130000     -0.03434230     -0.02973630     -0.02546520       1
H               1.19200000      3.08291000      1.46562000     -0.00341602     -0.00445220     -0.02479510       1
O             -30.52980000     23.55240000     33.20400000      0.03363370      0.06744220      0.01499120       8
H             -31.00820000     25.43780000     32.88980000      0.00662201     -0.04695670      0.00554282       1
H             -31.85580000     22.65300000     32.51220000     -0.02933140     -0.02464170     -0.01040100       1
O             -32.32340000     12.14990000     23.88470000      0.04909230      0.02423100      0.00803600       8
H             -33.52300000     11.36250000     22.87010000     -0.02584000     -0.01990160     -0.01634120       1
H             -30.95450000     12.69440000     22.70210000     -0.02440080     -0.00267611      0.01827010       1
O             -20.07750000     62.97870000    -19.78510000      0.00856516     -0.01921830      0.00511162       8
H             -20.02720000     61.73670000    -18.44480000      0.00052754      0.00724512      0.00533237       1
H             -20.51560000     61.86910000    -21.21500000     -0.00387337      0.01425180     -0.00307384       1
O              68.19200000     20.36110000     40.63740000     -0.00567320     -0.06297750      0.04733860       8
H              68.23120000     21.77210000     39.65920000     -0.01211870      0.05744570     -0.03248730       1
H              66.47400000     19.79960000     40.98630000      0.00687022      0.00904561     -0.01269560       1
O              56.89790000    -20.65170000      3.23510000      0.00534755     -0.04661590     -0.07474410       8
H              56.05240000    -21.72330000      4.37679000     -0.00873155     -0.00604639      0.03594560       1
H              56.84940000    -21.94740000      1.65625000      0.00608217      0.05407270      0.03768900       1
O              30.59690000     19.07460000    -12.54280000      0.04125290      0.06154660     -0.05056020       8
H              31.15760000     19.25430000    -14.39500000     -0.00735041     -0.00102008      0.04934410       1
H              29.65890000     17.63060000    -12.39530000     -0.03616760     -0.05611870      0.00652192       1
O             -16.61500000      6.44887000     60.63570000     -0.02214490      0.14069600      0.00378350       8
H             -15.77220000      8.23332000     61.45880000     -0.03986760     -0.06375460     -0.02506360       1
H             -15.69400000      5.09077000     60.96290000      0.05745950     -0.07578450      0.02336450       1
O               8.51490000      1.72811000     -1.68164000     -0.03166770     -0.02103530     -0.02394110       8
H               6.93502000      1.20354000     -2.74280000      0.06198060      0.00662536      0.03984760       1
H               9.82027000      0.38922300     -1.53614000     -0.03034020      0.01173820     -0.01090230       1
O              43.72000000      3.28033000     24.23870000      0.05424500     -0.04391780     -0.00236169       8
H              43.01630000      4.58570000     25.15680000     -0.01978300      0.04535190      0.02846800       1
H              45.18900000      2.71874000     25.38120000     -0.02794800      0.00814438     -0.02842070       1
O              -3.12094000     61.85690000     27.14880000      0.00663808     -0.04716160      0.04889180       8
H              -2.95995000     60.68620000     28.76980000     -0.00357754      0.04389760     -0.05305830       1
H              -2.05234000     63.30520000     27.43600000     -0.00180325      0.00354015      0.01338350       1
O              10.85670000     37.26610000     10.01170000      0.07197720      0.07820200      0.07503160       8
H               9.91929000     36.29110000      9.04717000     -0.06692830     -0.05931830     -0.08384190       1
H              10.70980000     39.05370000      9.65861000     -0.00328199     -0.01357490     -0.00502515       1
O             -18.04600000     20.20790000     19.42440000     -0.09075970     -0.00461048     -0.05504950       8
H             -19.60100000     19.04130000     19.55710000      0.02508040      0.01821460     -0.02692070       1
H             -17.29780000     19.76950000     20.85480000      0.06011130     -0.01539140      0.09186950       1
O              30.46560000     32.80950000     51.14810000     -0.05674120      0.14606600      0.01207110       8
H              30.80910000     31.27400000     50.67880000      0.02408870     -0.12733600     -0.03185600       1
H              28.92740000     33.46480000     50.22450000      0.02798230     -0.01669070      0.02432310       1
O              13.26590000     33.88090000     20.34000000      0.01085770      0.03180030      0.00529629       8
H              14.44720000     35.15630000     19.68220000     -0.01972150     -0.01440270     -0.00835619       1
H              13.77950000     32.29730000     19.68300000      0.00650278     -0.01906130     -0.00613168       1
O               2.32355000    -24.23020000     18.88860000      0.08882740      0.03952730     -0.00318023       8
H               1.20424000    -25.64330000     19.12120000     -0.00268786     -0.02651220      0.00252359       1
H               4.27915000    -24.60300000     18.72490000     -0.07878090     -0.00616038      0.00783229       1
O              -0.19145400     17.28060000      4.99279000     -0.06791670      0.00192404      0.01675100       8
H               1.32612000     16.49210000      5.07205000      0.06767750     -0.03787930      0.00346956       1
H              -0.02594400     18.53570000      3.78245000      0.00183668      0.03183880     -0.03061090       1
O               1.24664000      1.90484000     14.36720000     -0.01632230      0.01711080     -0.04469680       8
H               2.32295000      0.87344700     13.33470000     -0.00153308     -0.00771615     -0.01022330       1
H               1.78382000      1.66954000     16.00250000      0.01526720     -0.00989714      0.05066810       1
O             -34.78720000     53.06510000    -29.81460000     -0.06732770      0.15096300     -0.13873800       8
H             -33.39950000     53.02850000    -30.87860000      0.04490110      0.00390073     -0.03108960       1
H             -34.56950000     51.98470000    -28.70400000      0.02496490     -0.14945800      0.16234500       1
O               7.17448000     50.08830000    -16.46630000     -0.05084230      0.00737442      0.00078949       8
H               8.58999000     49.94980000    -15.30160000     -0.01596980      0.00227893      0.00840232       1
H               5.32954000     49.99900000    -15.71900000      0.07029400     -0.00891468     -0.00851412       1
O             -33.94240000     40.23790000      4.27780000      0.04307830     -0.07585470     -0.04939940       8
H             -33.82290000     38.51380000      3.31645000      0.00020959      0.05620180      0.02676690       1
H             -35.68370000     40.52370000      4.34039000     -0.04258670      0.00937468      0.00291822       1
O              21.40370000     36.89550000     13.42870000      0.06378900     -0.00749528      0.02283680       8
H              21.98460000     38.60380000     13.07910000     -0.00999610      0.00665189      0.00238660       1
H              19.72300000     36.61440000     13.21110000     -0.06383220      0.00317675     -0.02112610       1
O             -16.41720000    -14.73920000      7.43149000      0.00134895     -0.02864260      0.02737940       8
H             -16.96120000    -15.21050000      5.78261000     -0.00393309     -0.00193273     -0.01503710       1
H             -16.45500000    -16.35400000      8.42365000     -0.00101227      0.02859020     -0.01315210       1
O             -46.64660000      4.67208000     21.65620000     -0.00270146     -0.02032170     -0.01836380       8
H             -46.68700000      3.07389000     20.54380000      0.01251430      0.03620070      0.02105610       1
H             -45.57780000      6.00612000     20.93620000     -0.00636053     -0.02216810     -0.00532239       1
O             -23.17050000    -13.13060000     35.12430000     -0.05056930     -0.10498600      0.04260120       8
H             -22.32950000    -15.08300000     35.40990000     -0.03382080      0.07298440     -0.01115890       1
H             -25.11980000    -13.54740000     35.97100000      0.08083080      0.02587430     -0.03485380       1
O              17.30550000     18.10370000     32.03250000      0.01668510     -0.04087220     -0.06180880       8
H              18.78220000     17.20040000     32.61480000     -0.00484010      0.00970475      0.01429090       1
H              17.08130000     17.05120000     30.27140000     -0.01703780      0.03869550      0.06212820       1
O             -21.18430000     -1.02261000     34.72340000      0.04593930      0.07470340      0.01911000       8
H             -20.48760000     -2.49475000     35.29600000      0.03338600     -0.05062100      0.02067650       1
H             -22.66350000     -1.50185000     34.04620000     -0.07684140     -0.02102720     -0.03620090       1
O              41.97330000      7.22713000     35.80020000     -0.01578260     -0.01829710     -0.08059730       8
H              41.58530000      5.68421000     34.65150000     -0.00076441      0.03827330      0.02515090       1
H              42.17260000      6.53270000     37.40330000      0.01241450     -0.01799790      0.04991220       1
O              -9.17531000    -34.94360000     -7.59382000      0.01066230      0.04686860      0.09372120       8
H              -7.59214000    -34.39020000     -6.64829000     -0.03527860     -0.00522635     -0.01362800       1
H              -8.61653000    -35.71900000     -8.99565000      0.01838370     -0.03804330     -0.07519150       1
O              51.36390000    -18.45130000    -13.10440000      0.04685150      0.01280690      0.00627541       8
H              53.25350000    -18.17560000    -12.87550000     -0.02649120      0.00007426     -0.01318910       1
H              51.16850000    -19.57480000    -11.67930000     -0.02102010     -0.00474480      0.00257327       1
O              11.71960000      0.78603800     10.76910000     -0.05354080      0.14659400      0.02813120       8
H              11.36580000      1.24294000     12.65510000      0.00226731     -0.00026833     -0.03955940       1
H              12.28210000     -0.73948800     10.86170000      0.05194450     -0.14241300      0.00035162       1
O             -34.48950000     -4.31212000     45.93550000      0.04157860     -0.03637960     -0.02388440       8
H             -34.47060000     -5.33163000     44.35780000     -0.01319780      0.02125720      0.01265390       1
H             -32.78320000     -4.96074000     46.53170000     -0.03080080      0.01594510      0.00913637       1
O               7.70462000    -13.12190000    -10.85200000     -0.00072840     -0.00739004      0.04712030       8
H               8.30117000    -12.44410000     -9.19374000     -0.00666374     -0.00733627     -0.02391270       1
H               8.70798000    -12.28980000    -12.09680000      0.01713400      0.01297590     -0.01030110       1
O              22.94360000     17.58480000     13.58640000     -0.00146234      0.03720360     -0.01585750       8
H              21.63250000     18.64650000     14.31540000     -0.00929657     -0.01906850      0.01912610       1
H              23.44510000     18.94610000     12.41240000      0.00973156     -0.02728190     -0.00436249       1
O               9.12365000     21.27900000     -8.57271000      0.00654967     -0.00513377      0.01405400       8
H               8.13859000     20.69670000     -7.10356000      0.00663948      0.00631866      0.01569730       1
H               7.82096000     20.72230000     -9.69845000      0.00464037     -0.00528482     -0.03595470       1
O              23.99630000     52.33810000     31.73470000     -0.00310774     -0.01534050     -0.01758450       8
H              25.40900000     53.01530000     32.52920000      0.05016080     -0.00840208      0.03018280       1
H              23.26830000     53.96720000     31.75520000     -0.04395560      0.01942750     -0.01514400       1
O              -6.54796000      7.67136000      2.34718000      0.02516120     -0.02215930      0.01072160       8
H              -6.21231000      9.27736000      1.61764000     -0.01331960      0.01539420     -0.00799877       1
H              -8.24717000      7.42996000      2.83779000     -0.02023110      0.00684105     -0.00152982       1
O              13.84480000    -29.64850000     15.40010000     -0.06866150      0.02901540      0.03681460       8
H              11.69660000    -29.11840000     16.07620000      0.06897530     -0.01166310     -0.04057440       1
H              13.92510000    -31.44430000     15.29820000     -0.00229463     -0.01508270      0.00455350       1
O               2.58980000     16.86390000     42.56100000      0.00075342     -0.00608762      0.01224710       8
H               2.63135000     15.19760000     43.54070000     -0.00171442      0.01838140     -0.03084340       1
H               2.91056000     16.55580000     40.75800000     -0.00300831     -0.01029080      0.01334350       1
O              42.95820000     42.44550000     -0.48349900      0.01804350      0.00985476      0.11204900       8
H              44.31970000     43.75920000      0.06842100     -0.03157220     -0.03111740     -0.01518890       1
H              42.37890000     41.69230000      1.50712000      0.02049990      0.02850990     -0.09576760       1
O              22.20450000     11.02320000    -30.34070000     -0.00591940      0.03004740     -0.01754790       8
H              21.76360000      9.37772000    -29.75410000     -0.00990845     -0.02111820     -0.00451353       1
H              21.75090000     11.45590000    -32.13010000      0.01056980     -0.01612110      0.01327630       1
O             -14.91760000     40.83980000      4.16498000     -0.04866590     -0.03760290      0.01294930       8
H             -16.46620000     39.45550000      4.41716000      0.05296180      0.06496120     -0.00652864       1
H             -15.22360000     42.35320000      5.22695000     -0.00866929     -0.02137430     -0.00805665       1
O               8.93090000    -28.10260000     32.05140000     -0.15987600     -0.08365560     -0.03837290       8
H              10.44170000    -28.30560000     32.51440000      0.17562600     -0.04637400      0.07253280       1
H               9.05025000    -26.51260000     31.62900000     -0.02195570      0.12380900     -0.03708580       1
O               1.90367000     36.35060000      0.78768600     -0.00387963     -0.00883895     -0.02422480       8
H               0.11517900     36.55490000      1.44124000      0.02975950     -0.00872315     -0.03141050       1
H               2.20647000     36.19650000     -1.15922000     -0.02602440      0.01032470      0.04212230       1
O              -8.51085000    -12.36300000     11.78590000      0.02075550     -0.09606050     -0.01041840       8
H              -8.31977000    -14.50880000     11.44930000      0.01118850      0.07064250      0.02617010       1
H              -9.67476000    -12.27660000     10.43580000     -0.02083650      0.02450600     -0.00908645       1
O              -6.02619000      4.81450000     15.82070000      0.06031620     -0.05028010      0.02485910       8
H              -4.52080000      5.00005000     17.13790000     -0.04753460      0.00635011     -0.03227710       1
H              -5.38723000      3.00946000     15.06430000     -0.01834290      0.04608320      0.01122270       1
O              26.68860000    -12.31650000     -4.68703000     -0.05986180      0.01630540      0.02376300       8
H              24.77900000    -12.86550000     -5.23291000      0.04581660      0.01352360      0.00643234       1
H              27.83930000    -13.45180000     -5.39836000      0.01867800     -0.02572710     -0.01868740       1
O              21.59880000      5.91136000     44.24310000     -0.02388590     -0.02258500      0.06073200       8
H              20.80260000      5.24231000     46.02720000      0.02587290      0.01850160     -0.06324160       1
H              23.38190000      5.45460000     44.43630000     -0.00510071      0.00332931      0.00460887       1
O              14.53150000     25.60190000     47.36520000      0.05505320      0.06462850      0.01742920       8
H              16.38240000     26.51160000     47.51000000     -0.05950510     -0.04615620     -0.00119799       1
H              14.71830000     24.05700000     46.52310000      0.00896155     -0.02823830     -0.00931666       1
O             -16.34310000      9.46275000     21.78380000      0.01483350      0.01383360     -0.23291900       8
H             -15.02580000      8.36759000     21.61440000      0.05426730     -0.03316640     -0.01359520       1
H             -16.52640000      9.57847000     23.29850000     -0.04559620      0.02621890      0.26727100       1
