192
Lattice="23.18857 0.0 0.0 0.0 23.18857 0.0 0.0 0.0 23.18857" Properties=species:S:1:pos:R:3:force:R:3 TotEnergy=-1102.67235 cutoff=-1.0 nneightol=1.2 pbc="T T T"
O        5.44400000       1.53553000      20.93550000       0.02453400       0.04973310      -0.01785900
H        6.49959000       2.97931000      20.28740000      -0.01488970      -0.03186450       0.00755065
H        5.36170000       2.02240000      22.70130000      -0.00250402      -0.01704390       0.00438569
O       14.89110000      10.80370000       5.50983000       0.02221850      -0.02444040       0.03587030
H       15.89960000      11.70530000       6.83729000      -0.01335910      -0.00788488      -0.02038100
H       15.10750000       8.95922000       6.00839000      -0.00569770       0.02428270      -0.02406910
O       20.15440000       9.54097000      11.28330000      -0.06476490       0.05429280      -0.10855200
H       20.80980000       8.91639000      12.65110000       0.05252570      -0.04616410       0.11574400
H       21.23880000       9.05546000       9.91666000       0.00383262      -0.00577488      -0.01706330
O        9.07925000       0.16183000      10.68580000      -0.00377643      -0.04628360      -0.01233290
H       10.22200000      21.71520000      10.58500000      -0.02785580       0.04488800      -0.00104995
H        7.42750000      22.79980000       9.93840000       0.03628050       0.00468442       0.01198430
O        2.04438000      22.97950000      10.92240000      -0.03307130       0.19094000       0.10737100
H        3.62266000       0.24093000      11.96630000      -0.05263070       0.00847606      -0.00770660
H        2.84526000      21.73340000      10.41400000       0.09095390      -0.19627700      -0.09824540
O       14.57190000       8.30494000      14.89250000       0.05295000       0.00739346      -0.01348620
H       13.82250000       9.01814000      16.42190000       0.01493170       0.00613764       0.01001860
H       16.47000000       8.62100000      14.92140000      -0.05359830      -0.00665114       0.00525259
O       21.39790000      10.28960000       1.43203000      -0.01011810      -0.03726740       0.02478300
H       21.29330000      10.69080000       3.22566000       0.00382056       0.00019437      -0.01475780
H       21.43250000       8.37904000       1.54015000       0.00627138       0.04047170      -0.00892327
O        1.06172000      17.69750000      15.98360000      -0.04061510      -0.02120610      -0.03496020
H        2.50111000      18.51990000      16.54720000       0.03515580       0.02331210       0.01940460
H        1.56623000      16.70720000      14.50800000      -0.00404284       0.00412765       0.00547784
O       13.49940000      10.65860000      19.12100000       0.03900860      -0.01384720       0.04779590
H       13.68570000       9.66604000      20.88500000      -0.01404660       0.04641810      -0.05604840
H       15.13740000      11.79390000      18.85270000      -0.04793830      -0.03181730       0.00640343
O        6.15114000      19.31160000       0.69916700       0.01625860      -0.01694100      -0.05132780
H        6.75712000      18.71650000      22.04192000      -0.01632410       0.01140450       0.07036510
H        6.32438000      17.95470000       1.98238000       0.01641590       0.00376371      -0.02617350
O       20.32820000      21.15660000      12.91940000       0.03748310      -0.04282320       0.00246247
H       21.68410000      20.78540000      11.70380000      -0.01368870       0.01928390      -0.00595008
H       21.11740000      19.86770000      14.01100000      -0.01388900       0.01431160       0.00895578
O       15.65070000      21.63660000      15.28510000      -0.00028391      -0.03900930      -0.05943930
H       17.51110000      20.99940000      15.17990000      -0.06034440       0.02357140      -0.00961266
H       14.59170000      21.05400000      13.48450000       0.04736380       0.02790780       0.06132590
O       12.97780000       9.52674000       0.89218800       0.08002320       0.03150210       0.05921910
H       11.46730000      10.04930000       1.86717000       0.01187360      -0.01087370      -0.01138060
H       14.71580000      10.08620000       2.17027000      -0.08197030      -0.02434350      -0.04474560
O        4.21885000      20.67230000      18.08470000       0.03064950      -0.05708640      -0.06804900
H        4.70468000      21.90030000      19.11600000      -0.00129245       0.08096870       0.09084870
H        5.98879000      20.88290000      17.40470000      -0.02530590      -0.01944980      -0.02155590
O        8.01566000      15.45840000       3.03259000       0.00225047      -0.00890425      -0.00412214
H        9.83811000      15.71210000       3.05371000      -0.00432961      -0.00715198      -0.00402997
H        7.52642000      14.20070000       1.78901000       0.01076480       0.00238413       0.00965545
O       10.05860000       3.43213000      19.02900000       0.03022710       0.02982560      -0.02801360
H       11.75790000       2.94462000      19.54180000      -0.01142350       0.00381452       0.00136811
H       10.63060000       4.32494000      17.39890000      -0.01736460      -0.01711640       0.02493020
O       17.59000000      13.25230000       9.15665000      -0.00428015      -0.00719653       0.03922930
H       17.02610000      14.56520000      10.31920000      -0.00581991      -0.01204660      -0.00268918
H       18.33230000      11.84000000      10.27640000      -0.00573105       0.01797920      -0.01544920
O        7.18350000       5.72514000      12.29000000       0.02274340      -0.03338700       0.07169150
H        7.49142000       5.65550000      14.21160000      -0.02387060       0.02874180      -0.04023890
H        8.47228000       4.43432000      12.11210000      -0.00228952      -0.00032373      -0.02689750
O        4.45137000      16.38220000       6.19461000      -0.24699300       0.01567940       0.07351100
H        5.83646000      15.93700000       5.60863000       0.18545100      -0.07084090      -0.08379590
H        3.10743000      14.72750000       6.15681000       0.06589140       0.04744260       0.00898397
O       15.30810000      22.03710000       2.96706000      -0.00989049      -0.01127510      -0.07056410
H       12.17780000       3.68773000       0.81653400      -0.00219748      -0.04629300       0.02353620
H       16.25990000      21.14740000       1.54283000      -0.01183040       0.01775970       0.05853550
O       21.33520000       5.47420000       3.70556000      -0.06268680       0.00813711      -0.00045929
H       21.12290000       3.66013000       3.89924000      -0.00357111       0.01104000       0.00200450
H       19.45850000       6.22835000       3.96284000       0.05147520      -0.03872020       0.00070241
O       15.71720000       1.92575000      19.04460000      -0.01272740      -0.05018180      -0.05060450
H       17.49510000       2.42405000      19.05010000      -0.00924840      -0.00320283      -0.00384499
H       15.43400000       0.54315900      17.23430000       0.01569650       0.04073460       0.04668140
O        4.79499000       9.16810000      20.28680000      -0.01878160       0.00504728       0.01446490
H        4.71544000      10.98400000      20.55680000      -0.00522116      -0.00571653       0.00367235
H        3.31849000       8.38049000      21.25580000       0.02735350       0.00899839      -0.01820410
O       14.03610000       2.82126000       9.78803000       0.01363480       0.02201640      -0.05670230
H       12.48680000       2.03436000       9.17937000      -0.00863262       0.00637367       0.01072470
H       15.39030000       1.16949000       8.69039000       0.02543060      -0.04020160      -0.01722840
O        5.23489000       5.43894000       3.06673000       0.01716350       0.04204900       0.02252420
H        5.02785000       3.78367000       3.64413000      -0.00043265      -0.03799400      -0.00397768
H        6.21723000       6.03718000       4.58231000      -0.02022240       0.00883052      -0.01202230
O       21.91960000      13.67340000      17.23190000      -0.03880200       0.03715440       0.06054840
H       21.38590000      15.50790000      16.83690000       0.03218330      -0.04697610       0.01226210
H       21.31300000      13.47920000      19.12820000       0.02052570       0.01001750      -0.04937890
O       17.66380000      19.03730000      22.42190000      -0.02662940       0.02686460      -0.01948410
H       19.38610000      19.50520000      22.09170000      -0.00048191       0.01355000      -0.00081370
H       16.67770000      20.18160000      21.22850000       0.02982560      -0.03684960       0.02036480
O       20.22660000       5.03052000      18.87640000      -0.00083034       0.00872920       0.00412805
H       21.61810000       3.99181000      18.28140000       0.00139057      -0.00969634      -0.00167936
H       21.08230000       6.34296000      19.79780000      -0.01164450       0.00017337       0.00100619
O        5.46989000      19.15480000       9.99740000      -0.00280500      -0.00389110       0.00456449
H        5.62959000      17.74390000      11.14330000       0.00599607       0.01209020       0.00804377
H        4.91051000      18.18200000       8.51319000      -0.00110684       0.00509258      -0.00618255
O       15.80190000       5.61302000       4.92869000      -0.02108810      -0.03948010       0.03839170
H       14.74900000       4.15638000       7.56846000       0.00915927       0.00954391      -0.01107980
H       15.17660000       4.34074000       3.70170000       0.00825831       0.01948410       0.02109440
O        8.58780000      22.98370000      16.14020000      -0.01001260       0.03121020      -0.00498189
H        8.60827000       1.55033000      16.95710000       0.00830699      -0.04672830      -0.01451720
H        8.60528000       0.11563000      14.29250000       0.00530776      -0.00670245       0.01637110
O        6.95977000      14.65540000      12.45490000       0.01403780       0.00281134      -0.05019420
H        7.47055000      14.54430000      10.57280000      -0.00155953       0.00001041       0.04707490
H        5.19909000      14.17280000      12.46310000      -0.00999436      -0.00891038       0.00078256
O        2.33916000       5.45390000       9.84313000       0.00906147      -0.12812600       0.01234820
H        3.82273000       5.06016000      10.94870000      -0.01326300       0.02304630      -0.01054420
H        1.94419000       3.28565000       9.39469000       0.00370520       0.09141820       0.01457370
O       14.55240000      17.91810000      18.72550000      -0.03355700       0.02456280       0.00321432
H       13.20750000      18.29900000      20.05000000       0.02490630      -0.01740130      -0.04128140
H       14.13400000      18.89170000      17.15980000       0.00682146      -0.01163660       0.03522460
O        8.08089000       9.77741000       1.41014000       0.00167103      -0.00653450      -0.01075440
H        8.25014000       9.76178000      22.76948500      -0.00585163       0.00091620       0.01024870
H        7.24287000       8.17617000       1.74237000      -0.00299232       0.00964008       0.00083366
O        9.95659000      13.47350000       8.24919000       0.02117190      -0.01023870       0.01616420
H       11.33820000      13.92540000       7.13642000      -0.01169160       0.00177804      -0.00526861
H       10.74630000      12.10080000       9.23127000      -0.01023960       0.01555430      -0.01606120
O        1.08097000       2.23254000      17.85370000       0.03559040      -0.07294200       0.02861510
H        1.34875000       0.24965300      18.45210000      -0.02121180       0.08546080      -0.02662760
H        2.67966000       2.82289000      18.57020000      -0.01096230       0.00044304      -0.00639168
O       21.20050000       0.39963000       7.41261000       0.00300724      -0.00837874       0.04427320
H       21.47600000      22.00920000       6.44831000       0.00111610       0.00760525       0.01916620
H       20.88290000      23.01490000       9.27702000       0.01215290       0.01983410      -0.06961790
O       14.12580000      15.51060000      12.41950000      -0.04867000      -0.04798630       0.00760468
H       13.23260000      15.90320000      13.96080000       0.01488550       0.01930830       0.00847671
H       13.07780000      13.91670000      12.22410000       0.03339120       0.02672510      -0.01367880
O       21.47160000      21.26570000      19.88000000       0.04072570      -0.01138700      -0.11548100
H       22.62830000      20.47130000      20.97500000       0.02721080      -0.01489310       0.03056300
H       22.72410000      20.72280000      17.94920000      -0.06291360       0.01813100       0.08084640
O        6.16816000       0.73391300       2.50159000      -0.01721790      -0.01985440       0.03009360
H        7.90872000       0.34384700       2.27890000       0.00971591       0.01447000      -0.00031934
H        5.58756000      22.33014400       3.17557000      -0.00787591       0.00618588      -0.00968457
O       11.81420000      21.92660000      22.23530000      -0.04632600      -0.05983000      -0.08721920
H       12.77820000      22.64750000      20.82340000       0.00941334       0.00516508       0.01165670
H        9.97585000      21.77270000      21.44850000       0.04483200      -0.02110850       0.01468750
O       14.16530000       4.83264000      22.88580000       0.01988360      -0.00583780      -0.01374170
H       14.68920000       6.55498000      23.13070000      -0.00729365      -0.00088924       0.00385649
H       15.20510000       3.90387000      21.66160000      -0.00767908       0.00537519       0.00477442
O       13.26250000      15.41130000       3.78876000      -0.00477969       0.02090320       0.01255560
H       14.25580000      16.36010000       5.03973000      -0.00543384      -0.01695190      -0.02337720
H       13.82390000      13.69960000       3.57362000       0.00852709       0.00233556       0.00987905
O        3.46234000      11.70050000       7.45833000       0.00223368      -0.02673080      -0.01060680
H        2.43400000      10.03620000       7.26373000       0.01729950       0.04264790      -0.00675864
H        5.21797000      11.22200000       7.03717000      -0.02152740      -0.00072468       0.00638675
O        9.50815000      18.69140000      19.44620000      -0.01048790      -0.02077250       0.01314710
H        9.31950000      17.04670000      18.33370000       0.00556126       0.02533660       0.00610890
H        9.81219000      20.27840000      18.64730000      -0.00691203      -0.01147600      -0.03417130
O       21.37170000      14.54080000       6.82596000      -0.02248970      -0.01753500       0.02165780
H       19.77730000      14.67670000       8.03852000       0.04133740      -0.01104920      -0.03823680
H       21.57640000      12.70410000       6.73928000       0.00525869       0.01714140      -0.00041266
O        1.44883000      18.76240000      23.02264000      -0.06289100      -0.07183950       0.01213940
H        3.10422000      18.95740000       0.48223900       0.02855150       0.00718542       0.00472308
H        0.75003900      16.93330000       0.41435000       0.01917790       0.07254940      -0.02012920
O        7.70470000       8.77262000      16.34470000       0.03484220       0.00887536       0.02950230
H        6.69137000       9.14833000      17.90300000       0.00184387      -0.01156180      -0.02038340
H        9.44831000       9.04524000      17.00370000      -0.02906560      -0.00504774      -0.01215410
O       13.01560000      20.15480000      10.26890000       0.00373827      -0.07363920      -0.00809601
H       12.86370000      18.09760000      10.07770000       0.01099500       0.08348730       0.01190080
H       14.29000000      20.75780000       9.01957000      -0.00412228      -0.00489800       0.00706094
O       21.06730000      15.26980000      22.66210000      -0.06619100       0.00023364      -0.02089630
H       19.61330000      16.30370000      21.85920000       0.03818780      -0.01592810       0.02468390
H       19.98450000      14.25200000       0.59333000       0.02357990       0.00264885      -0.00819067
O        1.28123000       6.56751000      22.42390000       0.00913885      -0.06204640       0.05197890
H        1.99269000       5.79251000       0.96863000      -0.01923100       0.03605270      -0.05615050
H        0.57254700       5.03527000      21.62460000       0.01280680       0.01769670       0.00976036
O       23.13284500       8.41082000       7.10461000       0.03239050      -0.03966940       0.03606930
H       23.02665000       6.92187000       5.92060000      -0.00945808       0.02663470       0.01072160
H        1.14734000       7.42621000       8.59688000      -0.03401160       0.01719010      -0.04143190
O        6.77064000       7.64940000       7.73471000       0.06845280       0.04326220       0.01224640
H        5.84860000       7.52726000       9.30102000       0.01088280       0.00073899      -0.00906065
H        9.24632000       9.03643000       8.76134000      -0.05087440      -0.04732030      -0.01178990
O       16.62070000      22.52980000       7.31432000      -0.01291720       0.07789720       0.04700610
H       15.95890000      22.29110000       4.70143000       0.01171550      -0.01062750      -0.00135834
H       18.08860000       0.61213000       7.03957000      -0.02397760      -0.04334310       0.00763216
O       16.89150000      13.54170000      17.36220000       0.04330470       0.01427840      -0.01127980
H       18.32700000      12.96880000      16.26450000      -0.02685210       0.00885594       0.02562090
H       17.56570000      14.98090000      18.35740000      -0.02162990      -0.01938340      -0.01731290
O        0.02560300      19.07740000       6.71829000       0.03058060      -0.06674160      -0.04595500
H        1.67232000      19.17600000       5.79821000      -0.02584930       0.00840737       0.02009900
H       22.91667500      17.10140000       6.18758000      -0.00902923       0.06587870       0.02876350
O        1.95388000      14.00110000      12.13750000      -0.02452060       0.00872601      -0.01538300
H        0.99902700      12.81420000      13.12930000       0.00158778      -0.00548757      -0.00328183
H        1.11427000      14.09490000      10.45520000       0.01730070      -0.00466512       0.02330770
O        3.58334000      14.36000000      20.72640000      -0.07383030      -0.03927240      -0.08258340
H        1.91537000      13.52550000      18.94110000       0.07014510       0.03969770       0.07169590
H        2.74173000      15.97120000      20.86500000       0.00491345       0.00523017       0.00305834
O        8.97638000      14.53930000      16.98890000       0.01956210      -0.01903120      -0.08507840
H        8.10099000      14.86690000      15.02970000       0.02521150      -0.01644990       0.06081620
H       10.45310000      13.36040000      16.46360000      -0.04345420       0.03573830       0.02894660
O       11.54040000       8.99722000      10.40030000      -0.02999030       0.01186860      -0.01512720
H       10.69740000       9.12598000      12.08500000       0.01909110      -0.03219200      -0.02261010
H       12.17910000       7.35553000       9.77647000      -0.01176160       0.01621670       0.02868400
O       22.65080000       9.14441000      15.48670000       0.01150300      -0.00169008       0.03218630
H        0.18503000       7.81322000      16.51290000      -0.00226260       0.00066936      -0.01449080
H       22.46880000      10.49660000      16.73510000      -0.00124343      -0.00776171      -0.02111610
O       10.59570000       2.50679000       1.68249000       0.01483890       0.13660800      -0.05328040
H       10.05210000       4.88812000       0.91726600      -0.01058390      -0.09796530       0.03459140
H       11.21000000       0.00553700       0.07543700       0.00155326       0.08834270       0.07318000
O       12.17200000       4.04905000      14.41330000       0.07887170       0.01466060      -0.03283030
H       13.58440000       4.91412000      15.46370000      -0.03812000      -0.01943830      -0.03576550
H       13.51260000       3.91910000      12.27870000      -0.04821540      -0.01024730       0.05927890
