192
TotEnergy=-1103.48484000 cutoff=-1.00000000 nneightol=1.20000000 pbc="T T T" Lattice="24.51409000       0.00000000       0.00000000      -0.00000100      24.51409000       0.00000000      -0.00000100      -0.00000100      24.51409000" Properties=species:S:1:pos:R:3:force:R:3:Z:I:1
O              20.51880000      2.31257000    -32.65970000      0.02298660     -0.01153120     -0.08907610       8
H              20.20290000      2.63403000    -31.02770000     -0.01366660      0.00994585      0.08808980       1
H              19.51030000      0.96136500    -33.28550000     -0.01033420     -0.00288250      0.01014820       1
O              43.79160000     41.84910000     11.29370000      0.00916822      0.04759900     -0.03432060       8
H              45.45010000     41.41300000     10.50880000     -0.03030770     -0.00037457      0.00423447       1
H              43.14990000     43.44770000     10.35640000      0.02101240     -0.05025220      0.02606740       1
O              14.18590000      0.10735400     21.40610000      0.02234950     -0.03226820     -0.13591700       8
H              12.90540000     -0.87266300     19.84050000      0.04825220      0.03012300      0.07403270       1
H              15.87790000      0.17850100     20.08640000     -0.07128630     -0.00554758      0.06523740       1
O              -4.15908000     -8.38030000     -0.20847300     -0.04801790     -0.01174660      0.02523840       8
H              -3.03488000     -7.05294000     -0.04473800      0.04220880      0.04324980     -0.01277290       1
H              -5.21943000     -7.82622000      1.23823000      0.00226100     -0.02792480     -0.01829290       1
O               5.09348000     32.88830000     21.77610000      0.03400410      0.00987733     -0.00295954       8
H               5.92070000     34.38800000     21.01030000     -0.01388070     -0.02446620      0.00490006       1
H               6.39921000     31.49200000     21.82300000     -0.02830110      0.02262920     -0.00454624       1
O              -1.21697000     14.06070000      9.87120000      0.05545570      0.00304256     -0.09162730       8
H              -0.81216100     12.78630000      8.29248000     -0.01336340      0.03329920      0.05729830       1
H               0.00745600     15.49260000      9.19919000     -0.03521690     -0.03778110      0.03391010       1
O              40.36860000     22.22950000     10.76930000     -0.02353030     -0.01432430      0.01221340       8
H              41.26680000     22.39350000      9.12766000     -0.02502890     -0.01552300      0.00873199       1
H              39.02500000     20.79590000     11.06940000      0.04344540      0.03058500     -0.01900140       1
O              -0.01561100    -24.79190000     13.11630000     -0.06273290      0.02533610      0.02653020       8
H              -0.71655500    -26.30490000     13.92850000      0.02249220     -0.02136380     -0.00509529       1
H              -1.63251000    -23.92960000     13.74230000      0.04560530      0.00568707     -0.02364320       1
O              32.32210000    -37.57890000     17.48490000      0.03939810     -0.01106720     -0.00659013       8
H              33.76090000    -38.79550000     16.99900000     -0.03154130      0.02893910      0.01323490       1
H              33.14250000    -36.02100000     18.12470000     -0.00476941     -0.01654610     -0.00858205       1
O               6.74532000    -26.55060000    -22.19300000     -0.04859890      0.03466980      0.04231150       8
H               8.16807000    -26.18950000    -23.11740000      0.05248230     -0.00071690     -0.02800520       1
H               6.59483000    -24.90280000    -21.21190000     -0.00480421     -0.02146940     -0.01395350       1
O             -13.21570000      2.07368000      4.64408000      0.12685400     -0.01316160     -0.01380460       8
H             -14.85950000      2.06196000      4.74453000     -0.13191300      0.01928570      0.01412900       1
H             -12.96510000      0.77897300      3.38673000      0.01421310     -0.00799514     -0.00160804       1
O             -11.43280000     34.02130000     50.34990000     -0.00719850     -0.04179020      0.02890950       8
H             -10.93910000     35.21960000     49.21160000      0.03035800      0.04046130     -0.03765910       1
H             -13.16210000     34.43280000     50.55090000     -0.02365110      0.00141102      0.00954666       1
O              13.82460000    -30.30570000    -19.59880000      0.07284780      0.06771730     -0.07256570       8
H              15.30450000    -31.29460000    -20.01580000     -0.00373941     -0.00704989      0.00992935       1
H              12.77540000    -31.21420000    -18.68620000     -0.07255790     -0.06248870      0.06041180       1
O              25.96210000     18.78120000     34.12710000     -0.01099640     -0.00051100      0.04746520       8
H              27.63030000     19.14540000     33.53040000      0.01272980      0.00139144     -0.02086090       1
H              26.17830000     19.04640000     35.97990000     -0.01205350     -0.00543294     -0.02615020       1
O              -3.41493000      4.09511000     -2.93859000      0.02921480      0.09594480     -0.09184280       8
H              -1.72938000      5.20055000     -3.54468000     -0.05438460     -0.04314230      0.01535050       1
H              -2.84893000      3.22439000     -1.61194000      0.03413440     -0.05905650      0.07138880       1
O             -27.28270000     19.25090000     30.92420000      0.07213420      0.00633750      0.06137540       8
H             -25.73990000     19.37200000     32.37630000     -0.05070670     -0.01331120     -0.05700870       1
H             -27.51840000     21.04200000     30.78450000     -0.01228140      0.00523442     -0.00860223       1
O             -31.91440000     12.09530000     22.60410000     -0.02605200     -0.03505900     -0.00141886       8
H             -32.75230000     12.24030000     21.01160000     -0.01240350     -0.00933802     -0.01288260       1
H             -30.92550000     13.51840000     22.45880000      0.03766000      0.04116870      0.01413540       1
O             -16.11740000     61.18440000    -21.56890000      0.00890703     -0.01421600      0.04341820       8
H             -15.67380000     60.59730000    -19.78170000     -0.00833333      0.02212500     -0.03575190       1
H             -17.92560000     60.96620000    -21.61070000     -0.00700919     -0.00922168     -0.00769649       1
O              65.97150000     21.56590000     41.06260000      0.08480830      0.01160690     -0.02365640       8
H              65.59740000     22.08500000     39.35660000     -0.01547230     -0.00257431     -0.00291986       1
H              67.97040000     21.49900000     40.71780000     -0.06535360     -0.01085280      0.02617690       1
O              55.37740000    -21.63170000      4.77498000      0.00416815     -0.02497250      0.02887900       8
H              54.11040000    -22.09200000      6.05784000      0.01606150     -0.00494678     -0.00177166       1
H              54.40600000    -20.76270000      3.59826000     -0.02000900      0.02516980     -0.03632850       1
O              34.35430000     17.00090000    -16.48860000      0.02824680      0.04946050      0.03388770       8
H              33.91890000     15.27890000    -16.43960000     -0.00923104     -0.03303930      0.00481464       1
H              35.23620000     17.39200000    -14.83740000     -0.01832460     -0.01084400     -0.03067150       1
O             -11.10620000      5.64880000     61.81930000      0.03154540     -0.05138840     -0.04105200       8
H             -11.68740000      4.20232000     60.47170000      0.01497060      0.04321160      0.04071310       1
H              -9.21659000      5.31846000     61.98580000     -0.03424230      0.01172840     -0.00582409       1
O               6.94097000      3.91735000     -2.53132000     -0.04488520     -0.05641890     -0.00284145       8
H               8.61639000      4.18028000     -2.89886000      0.05815710      0.01377530     -0.00150580       1
H               6.67460000      2.13480000     -3.40477000     -0.00278001      0.04160120      0.01010080       1
O              43.17190000      7.31370000     25.05720000     -0.01100880      0.05657250     -0.03089680       8
H              42.86830000      8.91481000     23.85900000      0.00806917     -0.05095350      0.04247600       1
H              44.32210000      6.25083000     24.11620000     -0.00315865     -0.00168296     -0.00829647       1
O               0.70802700     59.24930000     31.14130000     -0.02984330     -0.00775861      0.03715640       8
H              -0.90745300     58.38500000     30.68330000      0.02127830      0.01008110     -0.00959402       1
H               1.70917000     59.65730000     29.72490000      0.00422513     -0.00147849     -0.03233700       1
O               8.85874000     36.57110000      8.48380000     -0.15790700      0.09311290     -0.09395260       8
H               7.47928000     35.47820000      8.75862000     -0.02257510     -0.01324690      0.00921695       1
H              10.13550000     35.89480000      9.11617000      0.17549800     -0.08834890      0.08443530       1
O             -13.60440000     21.14490000     18.87010000     -0.02325790     -0.06332140     -0.00466279       8
H             -15.19880000     21.88070000     18.60010000     -0.02116360      0.03120090     -0.00449680       1
H             -14.32110000     19.29800000     18.89770000      0.04500500      0.03812080      0.00180233       1
O              27.55490000     35.43300000     50.75930000     -0.03039840      0.03706780     -0.02742750       8
H              26.51190000     36.57890000     49.57270000      0.02394420     -0.02512660      0.02849910       1
H              27.62520000     33.93360000     49.73220000      0.00732242     -0.00662198      0.00248205       1
O              12.10610000     32.45250000     17.15370000      0.04325500     -0.00065933     -0.08781260       8
H              13.09400000     31.30500000     15.76020000     -0.04734600      0.04117900      0.03927650       1
H              11.92230000     31.39260000     18.50200000     -0.00554616     -0.03643760      0.05312890       1
O              -1.14449000    -23.77250000     25.59740000      0.00857580      0.01432550      0.02038640       8
H              -0.94729300    -23.41130000     27.45920000     -0.00904044     -0.02375610     -0.02805750       1
H              -0.93749300    -25.59470000     25.26130000     -0.00885357      0.01825670      0.01473000       1
O               4.21256000     16.88360000     -3.56893000      0.04221930      0.02580350      0.05031620       8
H               5.32875000     17.11420000     -1.96505000     -0.01671480     -0.01378230     -0.04528260       1
H               2.64657000     16.52250000     -2.77344000     -0.02208740     -0.01829570     -0.00224924       1
O               3.34237000      2.65973000     16.07400000     -0.04547020     -0.02635620     -0.03975740       8
H               1.92169000      1.90683000     14.78100000      0.04772200      0.02061120      0.05128070       1
H               2.54962000      3.89539000     17.19360000     -0.00173650     -0.00360545     -0.00991185       1
O             -36.79370000     54.31970000    -27.05840000      0.02458400      0.03424050      0.05249090       8
H             -35.86520000     52.69890000    -27.09170000     -0.00438859      0.01600710      0.00729971       1
H             -36.15310000     55.52830000    -25.50000000     -0.02148180     -0.05294030     -0.06002320       1
O               3.85456000     49.60480000    -16.20800000     -0.00909108     -0.07654560      0.00747020       8
H               4.55003000     50.15960000    -14.61650000      0.00453297      0.00716621      0.00465000       1
H               3.97337000     47.59540000    -16.08470000      0.00105570      0.06929530     -0.00501617       1
O             -33.10660000     34.96100000      5.93348000      0.02046470      0.00187627     -0.01687690       8
H             -34.09490000     34.49470000      4.34644000      0.03518520      0.00738288      0.02768310       1
H             -31.12260000     34.66040000      6.01094000     -0.05386830     -0.01099000     -0.02256070       1
O              20.73370000     35.69920000     13.54300000     -0.04824850     -0.04242300      0.07288690       8
H              19.22190000     36.70870000     13.55610000     -0.01839220     -0.00489051      0.01626100       1
H              21.38850000     36.48070000     12.21710000      0.06514670      0.04004190     -0.08453940       1
O             -12.58520000    -22.81420000      9.86213000      0.05231780     -0.00907350      0.21400400       8
H             -12.75630000    -23.03410000      8.28381000     -0.01221840     -0.02557610     -0.17636600       1
H             -11.36300000    -24.15940000     10.66660000     -0.03279920      0.03418760     -0.03560050       1
O             -47.95730000      6.25091000     19.37550000     -0.00183506      0.03224280      0.01026210       8
H             -48.28020000      8.03160000     18.78590000      0.00429925     -0.02820800      0.00464444       1
H             -46.58420000      6.58636000     20.61910000     -0.00969006      0.00152546     -0.01654130       1
O             -19.95270000    -15.56780000     34.69570000     -0.05124560      0.17178100     -0.04004640       8
H             -19.83630000    -17.18080000     34.82700000      0.00922826     -0.14845700      0.01332240       1
H             -21.54820000    -15.09490000     33.63770000      0.04035470     -0.02054100      0.02357140       1
O              17.88680000     15.60580000     29.26180000      0.01006920     -0.00549280     -0.00225171       8
H              19.41020000     16.34770000     29.86030000      0.01084430      0.02225550      0.00777492       1
H              18.19370000     13.88380000     29.72380000     -0.01660300     -0.00789635     -0.00557180       1
O             -18.41010000     -0.08493900     43.88640000      0.01667100     -0.06097310      0.07523420       8
H             -19.37790000     -1.21144000     45.16300000      0.01496360      0.03379150     -0.04410870       1
H             -19.49280000      0.56561800     42.66040000     -0.03881890      0.01892550     -0.03419040       1
O              44.41020000      4.58135000     32.73650000     -0.00086313     -0.01544370     -0.03858310       8
H              44.26980000      5.03031000     34.41860000     -0.00397273      0.01089590      0.05187590       1
H              42.73620000      4.06913000     32.18330000      0.00385571      0.00172494     -0.00455575       1
O              -8.42800000    -35.19520000    -11.67970000      0.05728040      0.05652930      0.04485420       8
H              -7.32338000    -34.18610000    -12.78830000     -0.00514766      0.00079315      0.00936564       1
H              -9.50327000    -36.08770000    -12.65170000     -0.05351680     -0.05472590     -0.05075960       1
O              56.03240000    -21.44690000    -12.40550000      0.08615970      0.04081780     -0.11930400       8
H              57.98850000    -21.62260000    -12.84480000     -0.07326220     -0.00204120      0.01881770       1
H              55.65880000    -22.16560000    -10.94960000     -0.01785000     -0.03951890      0.09680210       1
O              17.82070000     -1.92738000      5.69632000      0.07799810      0.00283323      0.07818480       8
H              18.10750000     -0.17632300      5.69861000      0.00730498      0.02491780     -0.00575566       1
H              16.56310000     -2.13650000      4.63700000     -0.08772210     -0.01886760     -0.06955370       1
O             -38.71580000     -8.69932000     43.83290000     -0.08644580      0.04359840      0.05829150       8
H             -37.28860000     -9.68658000     44.14380000      0.02941310     -0.01361030      0.01080690       1
H             -39.79360000     -8.28812000     45.61130000      0.05366360     -0.03015580     -0.06310640       1
O               4.16117000    -11.52930000    -10.48960000      0.02649850      0.01767730      0.02809580       8
H               5.88350000    -11.71920000     -9.77325000     -0.01787800     -0.00076827      0.01102880       1
H               4.34029000    -12.69440000    -11.81280000     -0.01018900     -0.02004400     -0.03085310       1
O              22.51800000     19.94780000     14.98540000      0.09217940      0.04828420      0.10706600       8
H              21.70960000     19.11250000     13.78450000     -0.04128560     -0.06514260     -0.06785550       1
H              24.21610000     19.11430000     15.75410000     -0.05164440      0.00994617     -0.03678060       1
O              12.85590000     18.40550000    -11.80070000      0.02442350     -0.03944340     -0.00123870       8
H              13.92440000     16.85920000    -11.43890000     -0.01130450      0.02076230     -0.01724750       1
H              12.45880000     18.77040000    -10.09630000     -0.01203960      0.01634830      0.01678050       1
O              23.32610000     49.76740000     30.98460000      0.08770390     -0.06464770     -0.00596553       8
H              22.38660000     51.12770000     31.42190000     -0.03281070      0.05760000      0.02878440       1
H              25.08930000     49.75510000     31.90260000     -0.05388190      0.00892899     -0.02081430       1
O              -4.13270000      8.50629000      5.30134000      0.00407677      0.01902120     -0.01747610       8
H              -4.38553000      7.16107000      6.52189000     -0.00146161     -0.01487900     -0.00277427       1
H              -4.76531000      8.02157000      3.57202000      0.01070300      0.00170507      0.01552370       1
O              12.32000000    -26.85400000     25.95540000      0.01619750     -0.00860205     -0.01611610       8
H              13.07030000    -28.35000000     26.84570000     -0.01097090      0.02129640     -0.00896603       1
H              13.24170000    -26.45210000     24.35470000     -0.01013710     -0.00774754      0.02373170       1
O              -0.95179100     20.11620000     49.82930000     -0.00403761      0.01083580     -0.05842270       8
H               0.73223300     20.59870000     49.02220000     -0.01332430     -0.01150630      0.02721530       1
H              -1.10787000     19.53970000     51.47280000      0.01511600     -0.00624475      0.04196370       1
O              32.74660000     41.06080000      0.04080300      0.00334617      0.00157514      0.02662200       8
H              33.88650000     42.36740000      0.72489200     -0.01602510     -0.01640570     -0.00467785       1
H              32.38840000     39.82690000      1.47431000      0.01796520      0.01987180     -0.02859360       1
O              27.30760000     17.87480000    -33.26750000      0.02788690     -0.07450890     -0.01882780       8
H              27.96790000     15.92310000    -33.97150000     -0.03316010      0.07160520      0.01756050       1
H              27.87980000     17.75530000    -31.52500000     -0.00147826      0.00366507     -0.00457987       1
O             -21.43170000     46.19140000     -1.22965000      0.01986930      0.05682040      0.02512200       8
H             -20.81820000     44.72640000     -2.03624000      0.01909880     -0.01776310     -0.00734881       1
H             -20.13770000     47.12210000     -0.02286100     -0.02775300     -0.04358500     -0.02444640       1
O               5.65754000    -29.09040000     31.87450000      0.00075434     -0.00669990      0.01965700       8
H               7.16717000    -30.01740000     32.47660000     -0.00326493      0.00541653     -0.01531240       1
H               6.03416000    -28.09360000     30.42970000      0.01073370     -0.00270033     -0.01216650       1
O               2.70060000     29.33700000      1.24768000      0.05728670      0.01998840     -0.05190410       8
H               3.74064000     29.17540000     -0.47487300     -0.04002520     -0.00325187      0.06591900       1
H               1.39085000     28.13020000      1.32717000     -0.01214030     -0.01933950     -0.01377950       1
O             -11.05260000    -13.96730000     10.00080000     -0.01155050     -0.02642220      0.03282480       8
H             -11.06520000    -15.70830000     10.84870000      0.00681748      0.03801640     -0.02499110       1
H              -9.97845000    -13.83450000      8.46843000     -0.00380553     -0.01900140      0.00090487       1
O              -5.66363000      5.95309000     13.25800000     -0.01859670      0.10664000     -0.05679550       8
H              -4.95410000      7.77557000     13.54770000     -0.02193250     -0.04467160     -0.01444530       1
H              -4.90740000      5.04634000     14.46510000      0.04013420     -0.05683430      0.06525260       1
O              24.49870000    -10.90250000     -2.23699000     -0.00619822      0.02954720      0.04089950       8
H              24.10910000    -11.77690000     -3.74911000     -0.00620413     -0.00311878     -0.01806850       1
H              23.03670000     -9.92089000     -1.54881000      0.01706880     -0.02804380     -0.01698430       1
O              24.46280000     11.50510000     41.97450000      0.04607940     -0.00010397      0.05052130       8
H              23.09910000     11.16320000     41.00950000     -0.06507350     -0.01064660     -0.04261790       1
H              25.78030000     11.69210000     40.77720000      0.02135310      0.00799862     -0.00853524       1
O              16.64210000     28.04330000     53.58610000     -0.09916160     -0.09597090      0.06181860       8
H              14.69220000     27.93560000     53.27040000      0.05331420     -0.00471297      0.01928010       1
H              16.98050000     29.29610000     52.57880000      0.03934970      0.09916020     -0.08161700       1
O             -10.21720000     12.56660000     17.76030000      0.02661150      0.16062100      0.00830086       8
H              -9.19452000     12.55990000     16.33000000      0.01758030      0.01041930     -0.03042420       1
H             -10.55890000     11.02410000     18.03840000     -0.04724910     -0.16954100      0.02478630       1
