192
Lattice="24.47185 0.0 0.0 0.0 24.47185 0.0 0.0 0.0 24.47185" Properties=species:S:1:pos:R:3:force:R:3 TotEnergy=-1103.41117 cutoff=-1.0 nneightol=1.2 pbc="T T T"
O        1.47645000      21.95651000      13.41150000       0.01797910      -0.07030390      -0.01559240
H       24.15800000      21.69250000      13.70890000       0.00545336       0.00446696      -0.00352234
H        2.18485000      20.01567000      13.06580000      -0.02693570       0.06947260       0.00827559
O        1.65390000      24.16715000      23.39515000       0.05196150      -0.03428350      -0.04293230
H        0.57360000       0.98590000      22.80847000      -0.02458680       0.02051590       0.00728274
H        2.61530000      23.76945000      21.76352000      -0.01830750       0.00430941       0.03961900
O       13.61790000       0.43844600      16.99420000      -0.00469239      -0.03972470      -0.08009360
H       13.99600000       1.15451000      18.46450000       0.00783582       0.05779690       0.08221240
H       14.96390000      23.67341400      17.03170000      -0.00402740      -0.01486360      -0.00652150
O       21.28012000      11.39705000      22.86230000      -0.05339610       0.08795640       0.08515480
H       21.97994000      10.63435000      21.52837000       0.04428340      -0.02381520      -0.07900820
H       21.26857000      13.37505000      22.84092000       0.01939430      -0.05797980      -0.00925327
O        3.79385000       9.89545000      18.00810000       0.00233433       0.01177200       0.01381900
H        5.31907000       9.86765000      19.09750000      -0.00883925       0.00117907       0.00901839
H        4.47420000       9.10935000      16.57960000       0.00797760      -0.01757690      -0.02894600
O       17.30885000      11.15620000       7.43688000      -0.04315780       0.04248350      -0.04060640
H       16.04859000      12.67210000       7.43288000       0.03916890      -0.02802850       0.01117230
H       17.10278000      10.85960000       5.57923000       0.00960844      -0.01170080       0.02790590
O       19.17755000       5.26315000      12.80000000       0.07553570      -0.02654220      -0.02642050
H       20.98415000       4.32215000      12.11450000      -0.08328230       0.03429960       0.03541720
H       18.22005000       3.95605000      13.65040000       0.00680527      -0.00857605      -0.00929989
O        2.58117000      13.76680000       7.97189000       0.04460540       0.01718640       0.07649450
H        4.12071000      12.75410000       8.22217000      -0.00606247      -0.01191880      -0.02496380
H        3.08934000      14.64220000       9.74805000      -0.03923720      -0.00336386      -0.05999640
O        8.24825000      14.01260000      17.92180000      -0.09494610       0.00510920      -0.01339450
H        6.21705000      13.77890000      18.02240000       0.07669660       0.01353050      -0.01633490
H        8.48995000      13.47510000      19.59500000       0.02078960      -0.01480910       0.02548010
O       11.02460000      20.33980000      23.71890000      -0.01745540      -0.03782600       0.04065210
H       12.62390000      21.02340000      24.36870000      -0.00245279      -0.00743834      -0.00866804
H       10.52530000      18.88800000       0.46665000       0.01452420       0.04168030      -0.03055660
O       10.31785000       5.08729000       7.99763000      -0.01610070      -0.04927270      -0.01751690
H       10.98925000       3.30079000       7.85307000      -0.02499450       0.02219340       0.00923558
H       11.73645000       5.98516000       8.44069000       0.04018490       0.03096730       0.01465540
O       14.44715000       3.98825000       2.14060000       0.07510280      -0.01831270       0.02796380
H       13.00385000       3.58625000       1.27570000      -0.04863670      -0.01826160      -0.02290320
H       15.79150000       2.51295000       1.90910000      -0.02596130       0.04270250      -0.00220351
O       11.18610000      17.60350000       7.73245000      -0.01304910       0.01338790      -0.07087230
H       10.13650000      16.99910000       6.07125000       0.02950120       0.01148570       0.05869910
H       10.76500000      16.77490000       9.23095000      -0.01509740      -0.01988630       0.01579400
O        1.36895000      14.35570000      15.84255000      -0.01437620      -0.01849590       0.01118600
H       24.07490000      13.77120000      15.96185000       0.00568224       0.01330450      -0.00428883
H        2.24175000      12.85970000      16.38355000       0.00665810      -0.00111635       0.00391263
O        5.07593000       1.37769000       2.58164000       0.00635396      -0.01656630       0.03423630
H        5.02339000       0.15491800       4.00149000       0.01606500       0.02027180       0.00982873
H        3.70256000       0.56142600       1.78769000      -0.01955040       0.00382422      -0.04076590
O       16.33020000       1.92855000       7.36365000      -0.09606150       0.04898060       0.05408070
H       17.61180000       1.20135000       6.53985000       0.06888020      -0.02479540      -0.05584810
H       15.29880000       3.17645000       6.45215000       0.02634610      -0.02310100      -0.00141976
O       16.25620000      11.94300000      22.81910000       0.00677231       0.00734396      -0.01741220
H       15.20340000      12.14610000      21.31860000       0.00533354      -0.00780640       0.00485917
H       17.99550000      11.48050000      22.25840000      -0.01582380       0.00243961       0.00826844
O        3.85295000      15.34950000       3.03745000       0.02866310      -0.01049060      -0.09325100
H        3.44805000      14.94270000       4.65245000      -0.01856780      -0.01453370       0.07515590
H        4.12035000      13.63820000       2.19625000      -0.01243520       0.02766300       0.01620180
O       20.07810000      21.51410000      13.43965000       0.01759520      -0.01544030       0.01825680
H       18.97040000      22.76800000      12.66655000      -0.00057929      -0.00279948       0.02839090
H       20.07970000      21.23620000      15.32905000      -0.01406260       0.01408130      -0.04199910
O       10.43020000      11.01035000       4.11544000      -0.06384160      -0.01958350      -0.04263840
H        9.49310000      10.01235000       2.73936000       0.01192470       0.02421900       0.04121380
H       12.03380000      10.48995000       3.56022000       0.04915410      -0.00757841       0.00069412
O        3.06145000      17.11630000      12.22685000       0.08531950       0.13390600      -0.14339000
H        4.82025000      17.00060000      12.77525000       0.01363330       0.01839940      -0.02796650
H        2.71095000      16.11120000      13.37185000      -0.09768690      -0.14791900       0.16574300
O        8.48845000       6.79944000      15.34260000      -0.03748230      -0.00068118      -0.04170610
H        9.31885000       8.20500000      14.58300000       0.01747180       0.01282890      -0.00819714
H        9.17115000       6.71182000      16.92180000       0.02263780      -0.01197860       0.05830890
O        9.70728000       1.96453000       0.04663800      -0.01053050       0.00727394       0.01146250
H        8.14181000       1.88075000       1.09419000       0.01578000      -0.00451405      -0.01394560
H       10.30840000       0.26906400      24.29535400      -0.00715149      -0.00157208      -0.00189223
O       20.86465000       0.74848100       4.87565000       0.03438430       0.01246440       0.01135220
H       22.35085000       1.92853000       5.06545000      -0.02566560       0.01312870      -0.01175350
H       21.94045000      23.86639600       5.42905000      -0.01146760      -0.03310680       0.00025863
O       22.14812000      13.03650000      10.09435000      -0.06095910      -0.01379300      -0.01305500
H       20.61669000      12.46560000       9.08875000       0.02462160       0.00919196       0.02240190
H       23.46975000      12.30790000       9.15945000       0.03090880      -0.00658354      -0.00822932
O        8.04018000      15.44405000      12.23670000       0.02854380       0.01339590       0.11092200
H        8.16583000      14.09655000      11.17560000      -0.00045793      -0.05091790      -0.05041440
H        8.72472000      14.56505000      13.93340000      -0.02352920       0.03675610      -0.05849150
O       11.65985000      18.77450000      19.10040000      -0.03475990      -0.03419470      -0.02813740
H       10.51915000      17.46550000      18.17100000       0.03128870       0.03234400       0.04936330
H       11.52615000      19.22970000      20.99470000      -0.01632000      -0.01463570      -0.02429970
O        4.11815000      10.39215000       1.56260000      -0.08792150       0.03388420      -0.07250280
H        4.88225000       9.47655000       2.79660000       0.02547030      -0.04673700       0.05059030
H        2.25605000       9.81555000       1.27270000       0.06111780       0.00947207       0.01537390
O       10.78290000       5.91805000      20.77060000      -0.05677790      -0.04262020       0.06235200
H       12.52020000       6.27015000      21.05700000       0.01781800       0.00128821      -0.00293603
H       10.24080000       4.63155000      22.29670000       0.02314100       0.03705100      -0.05873140
O        3.64423000      23.59020000      17.69240000       0.08729980      -0.01649220       0.02823280
H        3.10826000      23.43190000      16.03650000      -0.04282920      -0.00786698      -0.04807270
H        5.46562000      22.97830000      17.22370000      -0.04262320       0.02575300       0.03202630
O        0.67818600      19.50060000       1.59015000       0.01205530       0.01566930      -0.01855190
H        1.94912000      18.24960000       1.89673000       0.00998277      -0.01298840      -0.00058032
H        1.50580000      20.83670000       0.55797500      -0.01852060      -0.01245400       0.01471050
O       24.28732600       2.70176000      12.57070000      -0.04087600       0.08520520      -0.03146290
H       24.40873100       4.02566000      11.06790000      -0.00469143      -0.01135800       0.04855620
H        1.00248000       1.74067000      11.79440000       0.04641720      -0.06361620      -0.01381000
O       15.92290000       4.88340000      20.36170000       0.01690570      -0.00594065       0.07386540
H       17.05870000       6.10010000      19.57580000      -0.00499740      -0.00674100       0.00832367
H       16.41120000       4.65630000      22.33360000      -0.01059700       0.01219690      -0.07995030
O        7.08550000       6.85140000       3.92335000      -0.02612300       0.01492910      -0.04596630
H        7.96619000       6.72030000       5.40975000       0.03034840      -0.00857994       0.04447860
H        6.05362000       5.39070000       3.80475000      -0.00484361      -0.01373360      -0.00188996
O        9.13540000      16.08155000       3.28947000      -0.04289670       0.03881140      -0.02544040
H        9.26790000      14.35725000       3.03629000       0.03284050      -0.05260910       0.00612827
H        7.35270000      16.07305000       2.63800000       0.01212720       0.02363950       0.02241760
O       13.67250000      10.82075000      17.64400000       0.12219400      -0.03786170       0.08345740
H       15.07020000      10.17685000      16.57410000      -0.00366007       0.00385338       0.03160570
H       12.65090000      11.09705000      16.42400000      -0.11796200       0.03516320      -0.10848300
O        7.25475000      11.37655000       8.41578000       0.01719160      -0.04216370       0.01351340
H        8.36765000      11.31075000       6.87447000      -0.01344060      -0.00727295       0.02863360
H        7.29135000       9.62695000       9.42868000      -0.01349620       0.04571660      -0.04489400
O       24.44955000       2.67938000      18.06770000      -0.16512600       0.10167100      -0.01197470
H        1.30140000       1.86867000      18.42230000       0.15738500      -0.09532260       0.01481640
H       24.10105000       3.06342000      16.32850000       0.01056610      -0.00997564      -0.00613243
O        0.81225000       6.72835000       9.19205000      -0.00731796      -0.00052746       0.00460396
H        2.59355000       7.13555000       9.50885000      -0.01505920      -0.01427660      -0.01381560
H        0.46285000       5.83415000       7.59155000       0.01999850       0.00775353       0.00816794
O       17.09470000      16.08140000       1.15695000       0.00387286       0.01309660      -0.03285300
H       17.07550000      15.94080000       2.99105000      -0.00550392      -0.01558500      -0.01049150
H       16.66400000      14.68700000      24.35390000      -0.00175260       0.00722179       0.04466190
O        3.64355000      23.89740000       7.18895000      -0.00528546      -0.01731770       0.00011456
H        4.90545000      23.61331800       8.51975000      -0.01991080      -0.00732746      -0.01136140
H        2.28135000      22.54713000       7.12875000       0.02349480       0.02091250       0.01312740
O       15.17225000       7.93355000      10.62845000      -0.06025670      -0.06849820       0.07269790
H       16.48325000       6.73795000      11.10085000       0.00117380      -0.00201332       0.00981616
H       15.88505000       8.94167000       9.51925000       0.05399900       0.07454570      -0.08478070
O       20.44300000      18.58980000      18.17414000       0.03566800      -0.02735590       0.07606990
H       21.22395000      17.98360000      20.17938000      -0.02806420       0.02635800      -0.06660460
H       20.93781000      17.09160000      17.27490000      -0.00628341      -0.00120089      -0.00877589
O        6.24850000       6.64505000      10.61845000      -0.00639315       0.02299810       0.04013030
H        6.74580000       6.60025000      12.43575000      -0.01465330      -0.00459251      -0.01721120
H        7.70830000       5.90525000       9.89825000       0.01969850      -0.02057950      -0.01998360
O        8.98049000      22.62050000      16.43990000      -0.02607290       0.03552880      -0.01956080
H       10.46590000      23.60376400      15.95730000       0.00197424      -0.01307970       0.02359800
H        9.32683000      21.09224000      17.26550000       0.02508100      -0.01371970       0.01187120
O       15.95770000      21.28301000      23.80655000      -0.01085470      -0.02580570       0.11857100
H       16.16040000      21.20079000      22.08715000       0.00336403      -0.02185090      -0.07587920
H       16.07990000      19.53975000       0.28110000       0.00889677       0.04583860      -0.03809970
O       10.96060000      10.24865000      12.47925000       0.10704000      -0.00735860       0.01390110
H        9.68791000       9.91785000      11.36205000      -0.02726260      -0.00696684      -0.03984760
H       12.91920000       9.48395000      11.60505000      -0.06707320       0.01144050       0.03237370
O       20.82810000      17.77030000       9.75781000      -0.03698200      -0.00045434      -0.09327360
H       20.89500000      18.94510000      10.97550000       0.00840555       0.04174540       0.07656910
H       21.52890000      16.16410000       9.79428000       0.02522410      -0.03067420       0.02222970
O       15.89110000      20.63470000      18.99873000      -0.01175240      -0.05199370      -0.02681740
H       14.25290000      19.38640000      18.52671000       0.04162850       0.04442170       0.02062780
H       17.39220000      19.49780000      18.72520000      -0.01302270       0.02080420      -0.00187948
O       23.84390000      20.79355000       6.39245000       0.04169440      -0.00232816      -0.04197050
H       23.07470000      19.84195000       7.72245000      -0.00334665      -0.01882010       0.00152453
H        0.29325000      19.73655000       5.00235000      -0.04135270       0.02857830       0.04212140
O       14.93987000       9.01457000       2.43638000      -0.01008300       0.02986390       0.03782290
H       15.57509000      10.16500000       1.15292000      -0.00150047      -0.03089300      -0.01296300
H       14.79826000       7.17262000       2.53176000       0.01351400       0.00285882      -0.02666860
O       16.47440000       0.79175000      12.40530000      -0.02677260       0.00078080       0.00471669
H       15.92020000       1.12025000      10.70210000       0.01448230       0.00439329      -0.01407080
H       14.83920000       0.88795000      13.23850000       0.01321780      -0.00399280       0.01026560
O       20.57396000      13.44080000      15.46565000       0.02943520      -0.00375115      -0.07861780
H       19.85556000      11.80610000      15.77895000      -0.00916414      -0.00805207       0.00837584
H       21.06430000      13.21090000      13.48855000      -0.01508240       0.01335670       0.06628010
O       21.72055000      16.83925000      22.86096000      -0.05659010      -0.03224150      -0.02621540
H       22.91115000      17.56505000      23.95586500       0.01691400       0.01986240       0.02906360
H       19.99765000      16.59255000      23.66264200       0.03202740       0.01935390       0.00375414
O       23.27720000       8.47777000      19.19200000       0.01271760       0.02103620      -0.02445560
H        0.34725000       8.93148000      18.25840000      -0.01282580       0.00454349       0.00308224
H       24.02390000       7.43011000      20.39660000       0.00273006      -0.02796870       0.02424160
O       11.11945000       0.02610000       8.78935000      -0.03371040      -0.03762280       0.04390450
H       12.64675000      23.77325000       8.26537000       0.02343980      -0.00769681      -0.01134050
H       10.34825000      23.08505000      10.02210000       0.00784506       0.05043960      -0.03786750
O        7.76398000      21.77810000      11.78085000       0.01187550      -0.04132050      -0.05290550
H        8.41049000      19.93540000      11.41085000      -0.02199910       0.06548150       0.03603000
H        7.88099000      22.64720000      13.41175000       0.00972631      -0.03667560       0.00256795
O        0.25762400       3.89745000       4.75071000      -0.02497160       0.05860120      -0.02728540
H        1.79526000       2.90935000       4.59248000      -0.00144148       0.01705310      -0.01139810
H       24.26513600       5.54395000       3.38436000       0.02768590      -0.06469450       0.03555700
O       16.18226000      16.22202000       6.77939000      -0.06265890       0.05040990       0.01191530
H       14.70479000      17.49356000       7.26207000       0.01018960      -0.04972970      -0.03950190
H       16.95416000      16.91161000       8.22617000       0.05241600      -0.00613109       0.02012310
O       18.64731000       8.68027000      16.75850000       0.04515110       0.00704881       0.04415250
H       20.25663000       8.72181000      18.00980000      -0.04845050      -0.01160930      -0.05215240
H       19.06777000       7.66864000      15.27310000       0.00647252      -0.00433769       0.00607796
O       23.52840000       7.14625000       0.76377100       0.08712780      -0.09508350       0.03347380
H       23.17460000       5.55665000      24.27383900      -0.00770771       0.01337460      -0.00392424
H       22.50560000       8.41705000       0.45062800      -0.07613700       0.07986190      -0.02232940
O       22.42920000       3.16260000      22.48085000       0.00138676      -0.02898920      -0.03226450
H       21.07910000       2.03279000      23.16975000       0.01182960       0.01702170      -0.01458080
H       22.99170000       2.63126000      20.57715000      -0.02372460       0.02325890       0.03954580
O       18.27130000       1.06345000       0.66780000      -0.05969820      -0.00460398      -0.05429330
H       19.46920000       0.83705000       1.97880000       0.00990749      -0.02430740       0.02873020
H       17.07600000      24.04330000       0.02810000       0.05153280       0.01852810       0.03110070
O        7.37315000      10.02160000      21.61130000       0.07324800      -0.06531010      -0.03427230
H        8.38555000       8.14548000      21.73300000      -0.02680050       0.07023190      -0.01002080
H        6.06055000      10.04760000      22.74560000      -0.03557710      -0.00462029       0.04418960
