192
Lattice="24.14986 0.0 0.0 0.0 24.14986 0.0 0.0 0.0 24.14986" Properties=species:S:1:pos:R:3:force:R:3 TotEnergy=-1103.50566 cutoff=-1.0 nneightol=1.2 pbc="T T T"
O       21.79320000      24.08246600      20.11122000      -0.02133590      -0.01697400      -0.01734650
H       23.17460000       0.54020700      21.30972000      -0.04234810      -0.02214760      -0.00130347
H       19.98200000      23.11015000      20.08832000       0.06398410       0.04031540       0.01470640
O        0.85898000      23.48874000       4.57386000       0.03645270      -0.02479280       0.07962800
H        2.37108000      22.25854000       5.34725000      -0.04143950       0.03462420      -0.03020290
H        0.95538000      23.29134000       2.84587000       0.00391156      -0.01844870      -0.04712830
O       11.47600000       0.13620100      13.99420000       0.07992180      -0.01104650      -0.01643970
H       13.54480000      23.79492200      13.50360000      -0.07438300       0.01202900       0.02321400
H       10.80440000      22.77651000      14.73960000       0.00049038      -0.00753653      -0.00475223
O       18.46417000      16.60325000       0.72069600       0.05474480       0.02544620      -0.04347300
H       19.51004000      17.77159000      23.72150800       0.00082477      -0.04416580       0.01690750
H       17.32810000      17.90553000       1.01072000      -0.04963550       0.02162460       0.02566820
O        8.43270000       4.63674000      20.28640000       0.00012298       0.02861720       0.01689950
H        8.47625000       6.37374000      21.09130000       0.00535227      -0.03622650      -0.02291630
H       10.04840000       4.45104000      19.33340000      -0.01403870       0.01443670       0.00563901
O       21.64248000      12.20920000      11.88840000       0.00186314       0.00341857       0.03285170
H       20.83358000      11.69150000      10.39600000      -0.00422507      -0.00258089      -0.02731930
H       23.07188000      13.37180000      11.62560000      -0.00664642      -0.00197709      -0.01038820
O       20.19214000       0.95894000      11.37600000      -0.03383100      -0.01037430      -0.04753040
H       21.53724000       1.47324000      12.32050000       0.04988880       0.01354920       0.02935090
H       20.69054000       0.42464000       9.49318000      -0.01605670       0.00343629       0.03744110
O       22.63011000      19.64692000      12.42800000      -0.01000010       0.03124180      -0.04465900
H       23.51706000      18.43642000      11.33710000       0.00260933      -0.00270450       0.01425670
H       21.94444000      20.87162000      11.11910000       0.01138580      -0.02451880       0.03670660
O        5.10324000      13.63212000      18.22720000       0.02934090      -0.09650090       0.03226270
H        6.40334000      12.45012000      19.28760000      -0.04022480       0.04385820      -0.03901000
H        5.80194000      15.23892000      18.24810000       0.01379020       0.04637020       0.00301733
O        7.96241000      20.16602000      23.07632000      -0.03160380      -0.00196964      -0.02722330
H        9.67347000      20.20182000      23.51392000       0.03145680      -0.00730426       0.01001240
H        7.12277000      18.70732000      23.84482000       0.00477726       0.00617201       0.01042860
O       12.43926000       2.58539000       5.66064000      -0.02931010       0.01338770      -0.01846580
H       10.66816000       2.56371000       4.96268000       0.02547610      -0.00919267       0.02044990
H       13.20126000       3.89775000       4.62817000       0.00516506      -0.00717767       0.00182488
O       14.74254000       5.71914000       1.39738000      -0.06589920      -0.03903620       0.01730690
H       15.18587000       4.78604000      24.07214000       0.02341580       0.00834508      -0.01016240
H       15.56612000       7.06834000       2.12398000       0.04185640       0.02842460      -0.00564320
O       14.11030000      19.32792000       9.75506000       0.00998440      -0.02720850      -0.02569650
H       15.16750000      17.93692000       8.81536000      -0.03958710       0.02263170       0.03768530
H       12.30600000      18.91762000      10.09636000       0.02925830      -0.00175782      -0.01185270
O        1.07264000      15.66740000      10.67974000       0.04226540      -0.03335550       0.02786470
H        1.16174000      14.99870000       9.01454000      -0.00089118       0.00154229      -0.02201720
H        2.60344000      14.60380000      11.58094000      -0.04140820       0.03115760      -0.00835935
O        1.29872000       1.99718000      23.10807000      -0.02473400       0.00993713      -0.00112444
H        2.11509000       3.17163000      21.98369000       0.00894150       0.00189229      -0.00745995
H        2.53328000       1.39392000       0.09077500       0.01587240      -0.00772066       0.00441350
O       20.34182000      22.80670000       7.47984000      -0.05852080      -0.00959272      -0.03285160
H       21.46352000      23.09110000       6.10864000       0.01900820      -0.00088605      -0.01320510
H       18.51182000      22.66890000       6.61294000       0.04518780       0.00126505       0.02838350
O       16.06742000      12.11060000      23.21140000      -0.00894644       0.02885640      -0.03019150
H       15.10682000      11.67810000      21.52790000       0.01898100       0.00844993       0.02918160
H       17.11522000      13.63150000      22.79250000      -0.01405120      -0.02662690       0.00354340
O        8.38536000      13.04368000       4.34566000      -0.02401370       0.05427060       0.06744380
H        8.16996000      12.98398000       6.29816000       0.01197670      -0.00042395      -0.04909680
H        8.96696000      11.49858000       3.82356000       0.01596070      -0.05697190      -0.01570170
O       16.27678000      22.58000000      13.27004000      -0.00399370      -0.01252530      -0.00204771
H       17.79198000      23.40740000      12.71494000       0.01498330       0.02112900      -0.00395910
H       16.18848000      21.21920000      12.04164000      -0.01430710      -0.00521744       0.00705612
O        7.24488000       1.05566000       4.82851000      -0.01555820       0.01161870      -0.01547720
H        5.73738000       1.78916000       5.67329000       0.02386750      -0.00345302      -0.01979480
H        7.14688000       1.30926000       2.87441000      -0.00537458      -0.00369705       0.03349400
O        7.83964000      18.51050000       9.66626000       0.00563464      -0.01936090       0.00936078
H        8.42944000      16.69270000       9.47416000      -0.01342110       0.03127610       0.00640659
H        7.78244000      18.82590000      11.51926000       0.00775880      -0.00256685      -0.02057740
O       13.64256000       7.09894000      12.64418000      -0.00909882      -0.02912450      -0.05614560
H       12.44196000       6.07564000      11.39058000       0.03215920       0.02041170       0.05013560
H       15.43420000       6.66825000      12.13478000      -0.02960030       0.00312848       0.01725630
O        7.15757000       1.23606000       0.00404300      -0.06454050      -0.01466290       0.06661700
H        7.40432000      23.85162100      23.39356000       0.00338752      -0.05448840      -0.02126120
H        8.16119000       2.34963000      23.40531800       0.05404070       0.07054190      -0.05205750
O       20.88904000       5.56131000      23.29690000       0.02897410      -0.04287900      -0.02786340
H       20.92004000       6.68781000       0.46954000      -0.01873810       0.04571040       0.03902490
H       22.32194000       4.51341000      23.84030000      -0.01023910      -0.00329992      -0.02005060
O       20.50718000      14.00378000       4.73384000      -0.06097570       0.05196560      -0.06483120
H       19.81516000      15.36308000       3.13244000       0.01743510      -0.05143180       0.05676520
H       22.25534000      14.18018000       4.49344000       0.03472420      -0.00039544       0.00751170
O        8.85007000      13.57464000       9.79066000      -0.01424040      -0.00403627       0.00444785
H        7.45482000      13.37024000      10.96440000       0.00273390      -0.00412961      -0.00241580
H       10.32540000      12.67024000      10.47500000       0.00416146       0.00287692      -0.00883697
O        6.01636000      18.67860000      18.18290000      -0.02292870       0.06041920       0.06544660
H        4.13536000      19.60320000      18.21720000       0.08076680      -0.03521120      -0.00018737
H        7.18946000      19.40710000      19.96930000      -0.05262730      -0.02140310      -0.06021000
O       10.11844000       8.45414000       1.79778000      -0.01598220      -0.02675520       0.00258285
H       11.47284000       7.10954000       1.66018000      -0.02951990       0.02359750      -0.00205478
H        8.28544000       7.79654000       1.70128000       0.04274360       0.00603093       0.00577609
O       13.61980000      11.17434000      19.00790000      -0.00750845       0.11005700      -0.02374890
H       13.34150000      12.44514000      17.40180000       0.01434240      -0.04216700       0.04100130
H       13.29820000       9.55384000      18.56530000      -0.00965820      -0.07112520      -0.02492080
O        2.18448000      20.88342000       0.23864000      -0.05918540       0.01533840      -0.07346110
H        0.95721400      20.27262000      22.92600000       0.03881410       0.02098290       0.05573370
H        2.79762000      19.35422000       0.81374000       0.01798800      -0.03789460       0.01991030
O        1.38080000      13.75810000       5.27847000       0.00855654      -0.02226140      -0.00536101
H        1.52557000      11.94720000       4.96772000      -0.01334050       0.00376706       0.01372770
H        2.64545000      14.32360000       4.13295000       0.00860004       0.02108340      -0.00661405
O        2.12052000       1.75258000      14.96240000       0.00627549       0.01372180      -0.00895904
H        1.56918000       0.17915200      15.57720000      -0.00495311      -0.02434020       0.00101727
H        2.56731000       2.60732000      16.53130000       0.00114079       0.00864520       0.00010473
O       12.74532000       5.60578000      18.11062000      -0.03574720       0.02570290       0.01646450
H       12.99602000       5.59088000      16.36612000       0.00890902      -0.00365669      -0.03556120
H       14.02112000       4.74278000      18.97892000       0.03359730      -0.01479370       0.01213350
O        2.14144000       4.00068000       6.07796000      -0.01794930      -0.04476420      -0.01357450
H        2.60351000       3.45028000       7.78236000       0.00021334       0.00975843      -0.00553681
H        1.38726000       2.30818000       5.29516000       0.02037090       0.03855420       0.01961090
O       13.44562000      14.83064000       2.94284000       0.04879620      -0.02716630      -0.05817960
H       14.38342000      13.72694000       1.30847000      -0.03235670       0.02942280       0.05564480
H       11.80972000      14.13234000       3.18750000      -0.01347350      -0.00854754       0.00283018
O       22.94080000       7.91424000      14.36400000       0.00569149      -0.00301001      -0.07482500
H        0.04204000       7.34014000      12.90240000      -0.02641010       0.02523540       0.04864130
H       22.13950000       9.51614000      13.55960000       0.02500600      -0.02266000       0.01898790
O       10.20326000       3.53196000      10.81310000       0.04516650      -0.03871820      -0.05328240
H       11.29026000       3.26806000       9.19470000      -0.03778270       0.01202590       0.03294840
H       10.62766000       1.77966000      11.60170000      -0.01428970       0.03647540       0.00878123
O        3.31352000       4.43345000      19.03010000      -0.01488640       0.06373840      -0.01727780
H        2.43772000       6.19369000      18.61460000       0.03975880      -0.06206310       0.01785040
H        5.19862000       4.63698000      18.96010000      -0.01892070       0.00297161       0.00728528
O        2.87406000       8.10156000      10.99234000       0.00117062       0.03634870       0.07672420
H        3.76296000       6.57426000      11.11754000       0.01460820      -0.03726200      -0.01638500
H        2.16656000       8.57216000       9.50524000      -0.02421920       0.00215557      -0.06667890
O       16.51500000      14.79380000       7.90044000       0.02324850       0.00553584       0.01054820
H       18.34100000      14.67000000       7.33404000      -0.03099670      -0.00105182      -0.00534698
H       15.45300000      15.01320000       6.44914000       0.00287874      -0.00780613      -0.01722170
O        0.35276000      20.81967000      17.28274000       0.06202460      -0.05385230      -0.03331920
H       23.46072000      21.94838000      18.05364000      -0.05336080       0.05942110       0.03179060
H       23.93042000      20.37030000      15.59124000      -0.00398146       0.00131353       0.00160706
O       18.91774000       9.10250000       7.85684000       0.04221580      -0.03716050       0.11911400
H       18.05934000       9.19974000       6.41874000      -0.05429160      -0.00206453      -0.07630230
H       18.40494000       7.64861000       9.09874000       0.01034590       0.03754280      -0.03589880
O       13.60746000      14.49722000      15.01368000      -0.07769690      -0.01982860       0.03089040
H       15.09069000      15.28512000      15.22067000       0.07635230       0.04111810       0.00397037
H       13.49316000      13.96442000      13.31866000       0.00327639      -0.02305820      -0.02837230
O        4.66188000       3.45306000      10.73336000      -0.07038710      -0.04046610       0.07116520
H        6.36338000       3.63256000      10.51376000       0.06874760      -0.00022848      -0.00511547
H        4.34548000       2.43666000      12.53346000       0.00422497       0.03590030      -0.06405880
O       15.45760000      22.08223000       5.63711000       0.10420200      -0.20968000      -0.00124774
H       14.62090000      23.36999100       5.83691000      -0.12465800       0.22183400       0.01364050
H       14.50920000      21.08468000       6.95783000       0.02358310      -0.00246927      -0.00933902
O       14.76702000      18.28088000      20.12664000       0.00462368       0.01345750      -0.06379860
H       15.39552000      16.81514000      19.27964000       0.00102891      -0.00277015       0.00519553
H       14.63902000      17.96568000      21.81274000      -0.00408469      -0.01092980       0.05807830
O        4.01708000      12.64506000      13.20926000       0.01869030       0.02501870       0.01607660
H        4.43982000      12.64466000      15.06354000      -0.00840394       0.00018592      -0.01943760
H        3.58788000      11.04236000      12.51746000      -0.00174158      -0.02567870       0.00327140
O       18.93060000      16.38410000      14.39190000       0.00358780       0.02320880       0.03184050
H       20.33860000      17.57130000      14.77380000      -0.02265870      -0.02229900      -0.02004300
H       19.49970000      15.09200000      13.28050000       0.01339110      -0.00654299      -0.00652449
O        9.61872000      19.14030000      14.39351000      -0.01631830      -0.09194430       0.03486460
H       10.65150000      17.43880000      14.06676000      -0.03235660       0.06266470       0.01898270
H        8.18747000      18.51300000      15.77780000       0.04482810       0.03069340      -0.04104680
O       23.84470000       8.84108000       6.43274000       0.01804640      -0.03082630      -0.01185730
H       22.08010000       8.61078000       6.78524000      -0.01324180       0.01192400       0.00630992
H        0.16284000       7.09868000       5.92994000       0.00546478       0.01627160       0.00775011
O       18.86625000       9.24936000       2.13471000       0.00201994      -0.01332040      -0.00470779
H       19.76652000      10.60210000       2.86608000       0.01567250       0.01802460       0.02350890
H       18.25504000      10.14020000       0.66889500      -0.01715150      -0.00260562      -0.00927938
O       17.07070000      22.67452000      18.46120000       0.00799957      -0.00268196      -0.01718490
H       16.51770000      21.07932000      19.17830000      -0.00893254      -0.00092390      -0.00285342
H       17.00850000      22.45952000      16.57470000      -0.00278087       0.00188405       0.02707870
O       22.67562000      17.89310000      21.03714000       0.04537070       0.06118280      -0.02089930
H       22.17261000      16.23480000      20.48534000       0.00439340      -0.00212345      -0.01124370
H       23.87547100      19.04300000      19.67624000      -0.05518580      -0.06036650       0.03303870
O       13.68754000      19.60124000       1.14111000      -0.02082050      -0.04074670      -0.03549080
H       14.04914000      20.56754000       2.53822000       0.01432410       0.03556130       0.03992100
H       13.09304000      17.99604000       1.89379000       0.00823035       0.00330610      -0.00583629
O       19.90030000      13.81480000      19.61462000       0.00877872      -0.03400650       0.09279050
H       20.61140000      12.09220000      20.09782000      -0.01318880       0.03673860      -0.04391320
H       19.78910000      14.39520000      17.99282000       0.00278957      -0.00499859      -0.06007240
O        5.48806000      16.91294000       2.29756000       0.05151630       0.00138433       0.07973600
H        6.51756000      15.43804000       3.01121000      -0.01958120       0.01424030      -0.02907670
H        6.03486000      18.08114000       3.92648000      -0.03569430      -0.01578490      -0.05673250
O        5.28183000      20.75512000       5.78004000      -0.01237640      -0.01491310       0.02588180
H        5.54724000      20.08322000       7.64344000       0.01574080       0.02822650      -0.05415980
H        6.28414000      22.24072000       5.07274000      -0.00285695      -0.01518570       0.03438950
O        5.03537000       8.04084000       1.78719000      -0.01316230      -0.00240798       0.00356158
H        3.90725000       7.28734000       3.06982000       0.01251190       0.01075930      -0.02459760
H        4.11463000       8.75564000       0.30947000      -0.00386010      -0.01523300       0.02163010
O       13.34196000      11.82726000      10.79050000       0.07225990      -0.00339216      -0.05215340
H       13.58046000       9.94836000      11.06190000      -0.00527107       0.02444060       0.01018300
H       15.00643000      12.41676000       9.54715000      -0.06539510      -0.01301930       0.04446250
O       18.53576000       5.89260000      12.08440000       0.06317470       0.09924630       0.03104400
H       20.44298000       6.40959000      12.82570000      -0.06504550      -0.00453260      -0.01085820
H       18.84850000       4.26728000      11.72940000       0.00700386      -0.09228960      -0.02190350
O        2.72694000      10.18616000      21.81606000      -0.11740600      -0.12626900       0.07414490
H        4.00684000      11.07586000      21.56603000       0.14290800       0.11759300      -0.04588250
H        1.35674000      10.34826000      20.73221000      -0.02707260       0.00827384      -0.02659630
O       22.39300000       9.04405000      19.22784000      -0.03976580      -0.04633530       0.08378980
H       21.46140000       7.61548000      20.57854000       0.04479490       0.05068880      -0.05293500
H       22.88170000       8.16421000      17.73774000      -0.00577200      -0.00614241      -0.01829600
O       16.32330000       3.22034000      20.90404000      -0.00552257      -0.03451320      -0.02172320
H       18.10530000       3.67074000      20.83934000      -0.01026010      -0.00950693       0.00043135
H       16.07420000       1.52764000      19.94254000       0.01838790       0.03813610       0.02511620
O        8.73256000      10.64420000      21.24480000      -0.11588300      -0.02565610       0.03018310
H       10.16046000      11.08150000      20.48650000       0.09438330       0.02759830      -0.03037290
H        8.67726000      10.86410000      23.04560000       0.01832040      -0.00081354      -0.00420437
