192
TotEnergy=-1101.98208000 cutoff=-1.00000000 nneightol=1.20000000 pbc="T T T" Lattice="22.49220000       0.00000000       0.00000000      -0.00000100      22.49220000       0.00000000      -0.00000100      -0.00000100      22.49220000" Properties=species:S:1:pos:R:3:force:R:3:Z:I:1
O              10.85070000     17.98420000      0.99447200     -0.01287310      0.04367600     -0.04981900       8
H              11.26420000     18.41180000     -0.75078600      0.01488800     -0.01584500      0.00971050       1
H              11.55590000     16.50750000      1.66738000      0.02581880     -0.02890430      0.01449990       1
O              21.00580000      3.60178000      7.27777000     -0.01674750      0.00145996      0.02821370       8
H              22.80500000      4.05516000      7.48973000      0.00771826      0.00406853      0.00675990       1
H              20.92680000      1.86170000      6.80847000      0.00519739     -0.01268610     -0.01422550       1
O              17.34180000     -0.10399000     19.38120000     -0.01476060     -0.03428340      0.00737594       8
H              16.37160000      0.86054800     20.50560000     -0.01811950      0.00814554      0.02666060       1
H              17.44370000      1.11361000     18.08020000      0.01330150      0.01800270     -0.03824680       1
O              12.60730000     16.37100000      8.80096000      0.00746612     -0.04576740      0.06817440       8
H              12.66160000     14.64610000      9.83384000      0.00031483      0.05767800     -0.03984360       1
H              13.05670000     17.52890000     10.19180000     -0.01201210     -0.01441240     -0.01922430       1
O              17.37040000     11.69620000     13.76440000     -0.01152130      0.01165880      0.00723188       8
H              17.33850000     13.76380000     13.76720000     -0.01471200     -0.05519380      0.01611740       1
H              15.96120000     10.80750000     14.67370000      0.02167010      0.01741560     -0.01422570       1
O               3.53653000     14.37380000      8.70985000     -0.04123550      0.08259460      0.03792930       8
H               2.65334000     15.35400000      7.45314000      0.00398476      0.00084364      0.00638031       1
H               4.59275000     13.29780000      7.95141000      0.05011440     -0.05871910     -0.04667910       1
O              14.26780000     20.13970000     14.83770000     -0.03979570      0.08449130     -0.02224770       8
H              13.86880000     22.09170000     14.95090000      0.01774490     -0.06882570     -0.00845750       1
H              13.04130000     19.55510000     13.52210000      0.01565090      0.01009170      0.02009500       1
O               0.75054700     11.58960000     19.27790000      0.00155809      0.01825890      0.01506040       8
H              -1.03325000     11.78510000     19.10400000     -0.00037308     -0.00500489     -0.00926338       1
H               1.16515000     12.43730000     20.94170000     -0.00486332     -0.02120400     -0.01860060       1
O              13.61140000     22.10090000      2.74679000      0.02388170     -0.00075601     -0.02434250       8
H              13.25030000     20.27270000      2.53981000      0.00235831      0.02781150     -0.01654710       1
H              14.74950000     22.79990000      1.33223000     -0.03178270     -0.03268690      0.04227970       1
O              10.57240000     13.00030000     13.60650000     -0.00942393     -0.00137372      0.01190080       8
H              10.76150000     12.58300000     15.42610000     -0.00961149      0.00269530     -0.03437300       1
H               8.73723000     13.15160000     13.09810000      0.03805060      0.00294699      0.02198830       1
O               2.39703000     12.23290000      0.93808400     -0.04442270     -0.08012750     -0.02053060       8
H               1.27654000     11.27000000      2.04257000      0.00716585      0.01644620      0.00313601       1
H               3.10668000     13.56920000      1.73744000      0.02192480      0.05013970      0.03777640       1
O               9.47188000     18.39470000     17.46820000      0.06071890     -0.02610480     -0.01450300       8
H               9.75234000     19.03410000     15.78320000     -0.00946309     -0.00127191     -0.00707125       1
H               7.97884000     18.98170000     18.06280000     -0.06162460      0.02714860      0.02234850       1
O              18.17960000      2.29526000     15.48320000      0.01429390      0.05299550     -0.03756810       8
H              19.06910000      0.81519700     14.98570000      0.01604030     -0.01365850      0.00078165       1
H              19.22170000      3.67671000     14.61190000     -0.03279130     -0.03651190      0.04015020       1
O               6.94041000     11.33410000      6.50003000      0.01052630     -0.00349085     -0.01342060       8
H               8.46860000     10.91970000      7.52382000      0.00142926      0.00207777      0.00668222       1
H               6.08913000      9.72349000      6.22365000     -0.00478730      0.00743238     -0.00131196       1
O               9.51980000     19.60440000     12.37460000      0.06273240      0.02322100      0.03113930       8
H               9.38218000     21.32090000     11.79020000     -0.01899090     -0.01435140     -0.00631798       1
H               8.42520000     18.29220000     11.88270000     -0.02363960     -0.01656860     -0.01582400       1
O              18.40960000     14.21470000      2.62826000      0.00609045      0.02504200     -0.00804209       8
H              19.57220000     15.35740000      3.54124000     -0.01891520     -0.00932524     -0.01753550       1
H              17.99060000     15.07130000      0.99857400      0.00830763     -0.01179410      0.03947710       1
O               7.14334000     19.15860000      3.18180000     -0.01384520      0.04084660      0.00624216       8
H               7.22884000     20.64050000      4.40982000      0.00988158     -0.03570220     -0.02500120       1
H               8.44510000     19.30880000      1.81103000     -0.01191820     -0.00527383      0.03363650       1
O              14.42240000     10.18350000      4.90607000     -0.08061240     -0.06584500     -0.06534380       8
H              13.12880000      8.65807000      5.76300000      0.05412180      0.07525450     -0.04260740       1
H              13.60830000     10.43090000      2.45500000      0.03386120     -0.01024050      0.11095300       1
O               6.56493000      2.61814000     19.93090000      0.00093514     -0.00444578      0.00723557       8
H               6.13988000      0.89732900     20.53030000     -0.00095669      0.01520180     -0.00890425       1
H               5.48909000      3.86349000     20.79980000      0.01290220     -0.00998617      0.00276395       1
O              15.10470000      7.08005000     16.05740000      0.02317760     -0.00800076     -0.00236145       8
H              11.69400000      6.42383000     21.89840000      0.02355560     -0.00015773      0.03601000       1
H              15.22730000      5.27520000     15.70210000     -0.00213097      0.01888620      0.00771332       1
O               8.91450000      3.91544000     13.55190000     -0.00499966     -0.06174520      0.07082640       8
H               8.65896000      5.89594000     14.09560000     -0.00976593      0.00241254      0.00817102       1
H               8.71449000      2.71009000     15.15540000      0.00429391      0.05274140     -0.06013890       1
O              15.97900000     15.94920000     14.80170000      0.03513880      0.02910620     -0.01393450       8
H              14.93470000     15.08720000     15.98020000     -0.01581850      0.00866540      0.00861561       1
H              16.38780000     17.76450000     15.21150000     -0.02127090     -0.03916950     -0.00454205       1
O               3.93967000      6.89167000     13.62320000     -0.02683630      0.02705060      0.03975960       8
H               5.32134000      8.15595000     14.01800000     -0.00236769     -0.02292050     -0.00799770       1
H               2.46372000      7.55525000     14.66890000      0.02381150     -0.00184783     -0.03652020       1
O              15.60710000      3.38258000      0.08720100      0.00429609      0.01488620      0.01391770       8
H              17.25070000      4.10016000      0.49447300     -0.01627200     -0.00097418     -0.00296380       1
H              14.40960000      4.07746000      1.29650000      0.01719480     -0.00821782     -0.00842226       1
O              15.99710000     19.46180000      6.78768000     -0.02116790      0.08089880     -0.02582860       8
H              14.57010000     20.06660000      5.69607000      0.02786090     -0.00755712      0.02136290       1
H              15.70810000     17.80560000      7.20484000     -0.02680630     -0.06077730      0.01380540       1
O              12.55390000     14.87990000      4.11286000     -0.08192930      0.00196180     -0.01218710       8
H               9.16389000     14.31640000      5.12444000      0.06885680      0.00275564     -0.01272980       1
H              13.34810000     13.54620000      5.01155000      0.00681363     -0.01800310      0.01346820       1
O               8.16374000     13.81510000     20.69530000      0.02007280     -0.00354623      0.01066940       8
H               7.15015000     14.25380000     19.16010000      0.01144330      0.00147491     -0.01146940       1
H               7.97636000     15.22470000     21.79170000     -0.02261040      0.01517460      0.00913305       1
O               3.07132000      7.26373000      5.42267000     -0.00657002      0.04514020     -0.01658180       8
H               3.49462000      6.07026000      6.72928000      0.00437271     -0.00975773     -0.00501763       1
H               2.27474000      8.59305000      6.54323000      0.00303810      0.00212521     -0.00730591       1
O               2.28714000     18.81430000      5.88967000     -0.03304160      0.00516821     -0.01730510       8
H               2.68857000     18.06930000      4.27559000      0.00336801      0.00762793      0.00440924       1
H               0.39520600     19.22380000      5.59305000      0.03187850     -0.00875813     -0.00305384       1
O              11.65060000      4.83124000     10.06070000      0.04829410      0.00076798      0.00181833       8
H              13.39980000      4.52035000      9.49747000     -0.02135550      0.00554402      0.00108313       1
H              11.75070000      3.89942000     11.69570000     -0.02933400      0.01842250     -0.00994791       1
O               4.41965000      5.06693000      1.28858000      0.02159910      0.04411060     -0.00486293       8
H               3.80062000      6.53221000      2.34019000      0.00123478     -0.03651510     -0.00672861       1
H               3.47439000      3.61821000      1.56564000     -0.02181700     -0.01796690      0.01710050       1
O               4.20394000     14.71300000     16.88360000      0.02009990     -0.00272092      0.00465274       8
H               2.94354000     16.08100000     16.80820000      0.00635571     -0.00727876      0.00518002       1
H               3.38643000     13.47930000     17.94320000     -0.01367980     -0.01073520     -0.00619129       1
O               5.71305000     14.77330000      2.20661000     -0.02811520      0.09563770     -0.05703630       8
H               6.06696000     16.41910000      2.96574000      0.00431718      0.01612740      0.00019500       1
H               6.37800000     13.68500000      3.24501000      0.04437890     -0.09046400      0.07958650       1
O               7.26065000      9.39790000      0.44570000      0.02657630     -0.02133640      0.01519690       8
H               6.26345000      9.76058000      1.89279000     -0.00992455      0.00276489      0.00367796       1
H               6.70209000     10.49840000     -0.84217400     -0.00445238      0.01191560     -0.01074480       1
O               3.53735000      2.60035000     16.02180000     -0.01879020      0.01518240     -0.02467820       8
H               3.96613000      4.27925000     15.30090000      0.00131533      0.00081257     -0.00724648       1
H               4.57866000      2.39886000     17.45260000      0.02107180     -0.00504984      0.02335110       1
O               3.05101000      4.72445000      9.08415000      0.02403490     -0.03042440      0.01974200       8
H               3.49087000      6.24967000     10.07210000     -0.01047260     -0.00477183      0.01415090       1
H               4.45497000      3.50653000      9.25592000     -0.01919540      0.01446950      0.00541551       1
O              18.38640000      4.69908000     11.05680000      0.09428420     -0.25711400     -0.07218910       8
H              17.75140000      6.05747000     11.51510000     -0.07019080      0.21963500      0.06806440       1
H              19.46430000      4.46954000      9.45010000     -0.04702640      0.16286300     -0.13924500       1
O              10.90780000     10.53900000      9.22395000      0.01521710     -0.11907900     -0.02425320       8
H              10.55700000     10.85130000     10.92850000     -0.00520041      0.02140450      0.04353380       1
H              11.11660000      8.33864000      9.56893000     -0.00854943      0.08224740     -0.01492800       1
O               6.09883000     22.72370000     11.25810000     -0.04414720     -0.08841140     -0.00271315       8
H               5.61247000     23.97660000     12.42230000     -0.00520956      0.01136200      0.02492140       1
H               5.17347000     20.91070000     11.74970000      0.03366910      0.08481800     -0.01352060       1
O              14.72030000      1.16477000     10.57460000     -0.08055980     -0.17263800     -0.15237600       8
H              15.96400000      1.96071000     11.06890000      0.16647400      0.12623000      0.09831300       1
H              16.32360000      0.00849400      9.07741000     -0.08723650      0.02602560      0.05240420       1
O               6.60385000     15.59660000     12.55530000      0.00733688      0.00303401     -0.00831190       8
H               6.27935000     15.31660000     14.33710000     -0.01509410     -0.00361031     -0.00787334       1
H               5.42163000     14.75450000     11.43040000     -0.00828486      0.01158350      0.00851365       1
O              10.43270000      4.19796000      5.61393000      0.00225215      0.03196950     -0.08762720       8
H              10.75100000      3.72801000      7.28584000     -0.00494382     -0.00839170      0.04319900       1
H               8.74522000      3.98083000      5.01485000     -0.00702458     -0.01452920      0.01742260       1
O              11.60470000      6.99102000      1.60334000      0.00618887     -0.02579730     -0.04799210       8
H              11.10330000      5.62798000      2.88032000      0.00567527      0.00520291      0.00327459       1
H              10.15230000      8.09712000      1.35911000     -0.02700570      0.01867110      0.00685990       1
O              17.24020000     12.88440000      9.11143000     -0.00928678     -0.02773110      0.03590000       8
H              16.97950000     11.95030000     10.91450000      0.01360750      0.02548450     -0.04574110       1
H              17.15460000     11.59110000      7.86293000     -0.00311521     -0.00226621     -0.00217883       1
O              17.54030000     10.37520000     20.28550000     -0.00627266     -0.04174870     -0.05103030       8
H              17.41820000      8.37027000     19.02860000     -0.01339340      0.07201540      0.02748110       1
H              17.94790000     10.06180000     22.07010000      0.00340234     -0.01048810     -0.00687742       1
O              19.94860000     19.30220000     21.89530000     -0.00994600      0.01505140     -0.02399520       8
H              18.34780000     16.41590000     20.11120000      0.13448900      0.11671000     -0.01171060       1
H              19.59720000     21.06120000     21.20830000      0.01513370     -0.05341620      0.01927460       1
O               5.04555000     20.22830000     20.16330000     -0.02332380     -0.01739240      0.05413260       8
H               4.76796000     19.99630000     22.07980000      0.00917416      0.00291740     -0.05215840       1
H               3.44085000     19.42460000     19.40980000      0.02099060      0.00889709      0.01151730       1
O               6.97349000      0.24803100      6.53741000     -0.03922500     -0.00768818     -0.27238100       8
H               5.21929000     -0.27595100      6.24927000      0.00918476      0.00472655     -0.00215050       1
H               6.97882000      0.31002600      8.06921000      0.01599560      0.00908782      0.26947800       1
O              12.89330000     13.22870000     18.43690000      0.06241420     -0.02607410     -0.03160510       8
H              11.71410000     13.63580000     19.60720000     -0.04671180      0.02183940      0.03411740       1
H              14.35330000     12.67800000     19.41370000     -0.01463490     -0.01426160     -0.01135280       1
O              21.79930000     11.35200000      5.23275000     -0.02355080      0.01056920     -0.02580900       8
H              20.15490000     11.78860000      4.45187000      0.02320570     -0.00543635      0.01500730       1
H              21.74600000     11.29970000      7.06685000      0.00951632     -0.00334774      0.00964174       1
O              21.89250000      3.42706000     20.65420000      0.05593620      0.00418150     -0.10479000       8
H              22.84630000      4.38423000     18.73770000     -0.04511330     -0.03664140      0.09300620       1
H              21.11710000      4.58985000     21.71640000     -0.00625631      0.03937380      0.00426934       1
O               1.17194000     19.34050000     10.75610000      0.08195590      0.04860810      0.01438200       8
H               2.48473000     19.38440000      9.41184000     -0.03168750     -0.00802358      0.01892780       1
H              -0.24912000     18.53810000     10.12480000     -0.03974540     -0.02962820     -0.02191800       1
O              17.21940000     15.29380000     20.44400000     -0.08460280     -0.14863700     -0.00453213       8
H              17.81390000     13.39420000     19.93320000     -0.01621380      0.02026370      0.00874140       1
H              15.82560000     16.16160000     19.30930000     -0.03135870      0.00867034      0.01276120       1
O              22.36270000      0.66353200      2.35101000     -0.01349530      0.02999510     -0.00674750       8
H              20.50850000      0.54134300      1.98945000      0.04471550     -0.00563748      0.00007533       1
H              23.09270000      1.79830000      1.02788000     -0.02589820     -0.02473880      0.01356090       1
O              22.33170000     10.28540000     14.45690000      0.00670063      0.00399649      0.00369095       8
H              20.46000000     10.42940000     14.74160000      0.03517730      0.02274090     -0.01945550       1
H              23.34770000     11.77340000     13.80310000     -0.04759190     -0.03659420      0.01665610       1
O               1.49937000     10.25690000      9.39843000      0.00786767      0.00165113      0.01244210       8
H              -2.65471000      3.42942000     10.26410000      0.04103560     -0.09378240      0.11770100       1
H               2.14100000     11.88630000     10.14810000     -0.01947130     -0.04399880     -0.02434660       1
O              20.05300000     19.07860000      4.29808000      0.00664728     -0.00456876     -0.00999280       8
H              18.74240000     19.61390000      5.46597000     -0.00600860     -0.00868234     -0.02396480       1
H              19.49160000     18.88500000      2.41841000      0.01670960      0.02161660      0.01131810       1
O              -0.07610200     22.25480000     15.04510000     -0.03431020      0.00994500      0.07779330       8
H               0.14572700     21.86250000     13.42560000      0.01796660     -0.04000500     -0.09227170       1
H               1.20882000     23.50740000     15.36190000      0.01444100      0.01283840      0.01114180       1
O              19.70900000     17.34820000      9.20629000      0.00791130     -0.04143090     -0.05477310       8
H              20.02820000     16.18770000      7.56193000     -0.01830560      0.04416080      0.07025810       1
H              18.48180000     18.59860000      8.69745000      0.01012530     -0.01192360      0.00503536       1
O               8.33133000      8.41579000     14.64020000      0.03453800     -0.01068290     -0.01003830       8
H              10.40660000     13.55440000     22.53080000     -0.01597680     -0.00503636     -0.01662550       1
H              10.17670000      8.57578000     14.38720000     -0.02785470      0.00781171      0.01039470       1
O              18.62020000      8.93859000      2.25895000     -0.02296660     -0.00975322     -0.00904428       8
H              20.03800000      7.87679000      2.51778000      0.00333859     -0.00382742      0.01674150       1
H              17.15440000      8.73707000      3.39192000      0.01959260      0.00128928      0.00162497       1
O              14.20400000     18.28370000     19.27570000      0.07914340      0.03446920      0.03558100       8
H              16.05540000     19.93180000     19.21440000     -0.05507940     -0.01967550      0.00128555       1
H              12.90090000     18.83970000     18.20340000     -0.01206100      0.00299980     -0.02301410       1
O              10.67960000      6.20783000     18.93990000     -0.01956520     -0.03846730      0.09070300       8
H               9.89940000      6.26987000     20.76100000     -0.02444960      0.00602482     -0.07257930       1
H              10.10560000      4.39780000     18.73990000      0.01097100      0.03030510     -0.00811341       1
O               1.13766000     18.12510000     17.99900000     -0.06562010      0.04335140      0.02445630       8
H              -0.52167500     18.23840000     19.11700000      0.03957080     -0.00999080     -0.00053747       1
H               0.76794500     19.79300000     17.21780000      0.00851970     -0.01429180     -0.01554420       1
