192
Lattice="25.83345 0.0 0.0 0.0 25.83345 0.0 0.0 0.0 25.83345" Properties=species:S:1:pos:R:3:force:R:3 TotEnergy=-1102.25169 cutoff=-1.0 nneightol=1.2 pbc="T T T"
O        8.62214000      11.63380000      10.16770000       0.03321750       0.01066650       0.02325660
H        9.64763000      11.84610000      11.76970000      -0.02062190      -0.00333545      -0.03083930
H        6.87128000      11.54660000      10.72710000       0.00118071      -0.00257784       0.00474513
O       15.03260000      15.75270000       2.75617000       0.05933910       0.03651040      -0.00480713
H       16.71710000      16.64480000       2.24532000      -0.05365510      -0.03589600       0.01636770
H       13.93030000      15.91890000       1.35562000      -0.00265130       0.00189283      -0.01370730
O       13.27660000      23.52260000      16.94920000      -0.08517210      -0.00427079      -0.05274070
H       11.48650000      23.29550000      15.80120000       0.07741210       0.00875986       0.05979160
H       13.41810000      25.34830000      16.92430000       0.00787674      -0.00350345      -0.00221654
O       24.68060000      14.30980000       6.90021000       0.04434820       0.00959735      -0.02561570
H       25.22130000      16.11290000       7.19073000      -0.00215405      -0.03947730      -0.01010850
H        0.17984500      13.41470000       5.72313000      -0.03846030       0.03795190       0.03250760
O       10.71520000      13.02900000       4.53162000       0.01231830       0.02083730       0.01196700
H       10.09840000      12.58740000       6.20864000       0.00286957       0.00590748      -0.00538629
H       12.00690000      14.38230000       4.77109000      -0.01628020      -0.03072130       0.00038334
O        6.94346000      22.71010000      16.87960000      -0.02268530      -0.00567065       0.01684120
H        6.00440000      21.38460000      15.93580000       0.01480710       0.01245010       0.01696960
H        6.11165000      22.83660000      18.58080000       0.01242580      -0.00391362      -0.03379210
O        0.47904000       7.53141000      10.26080000      -0.01835870      -0.05606260      -0.02799130
H       24.90590000       5.68267000       9.40176000       0.02069430       0.07845800       0.03129950
H       25.58420000       8.99189000      11.09450000      -0.01604590      -0.01996810      -0.00837784
O       23.46640000      25.44745500      23.20670000       0.03266030      -0.01684050      -0.02394030
H       24.23520000      24.27620000      21.88340000      -0.01708250       0.03355630       0.03457970
H       24.84350000       0.72929600      23.91810000      -0.02540880      -0.01896670      -0.01166530
O       24.18330000       7.66296000       1.40510000       0.02630440       0.00771745      -0.01666720
H       12.03315000       1.01425000       0.32777700      -0.00237099      -0.00129063       0.01061710
H       25.58375000       8.73119000       0.73561400      -0.02727210      -0.01389520       0.01500500
O       25.71425300      14.06840000      20.55070000      -0.00348370       0.00003943      -0.01016210
H        0.31862300      15.57800000      21.37260000       0.01578650       0.01791930       0.01829080
H       24.92560000      14.81550000      19.05320000      -0.00101424      -0.02161420      -0.00516449
O       15.63840000      22.44340000       4.66885000       0.08419590      -0.09063200      -0.01612560
H       15.87850000      20.32450000       4.13476000      -0.01834680       0.09604040       0.02779210
H       17.58110000      22.76540000       5.18883000      -0.05728380      -0.00599029      -0.01513880
O        4.68440000      23.61010000      21.92710000      -0.01865280      -0.02434420      -0.01075510
H        4.15025000      21.81510000      22.17000000       0.01199660       0.03165490       0.00691395
H        6.35846000      23.82580000      22.53230000       0.00609840      -0.00539666       0.00861992
O        0.34381400      20.24530000       8.03435000      -0.12804100      -0.01054140       0.00630663
H       25.25649300      21.78830000       8.55150000       0.02829460      -0.00946739      -0.00762470
H        2.00560000      20.37430000       8.09594000       0.10224500       0.02362120       0.00021207
O        8.94335000       8.40705000       1.34442000       0.03825790      -0.01802360       0.07033290
H        9.18841000       9.74397000       2.69298000      -0.00948582      -0.01601860      -0.03234270
H        9.79010000       6.95094000       2.35053000      -0.02956250       0.03727740      -0.03672600
O       17.99890000       6.43785000      11.62170000      -0.04272730       0.02051280      -0.08622950
H       17.35690000       5.28201000      13.00730000       0.01842800      -0.00445443      -0.01328660
H       16.28450000       6.81102000      10.48410000       0.05989810      -0.01676770       0.03914620
O       14.25510000       8.54566000      24.70630000      -0.03155510       0.01101830       0.01075990
H       12.77620000       8.82027000       0.00149900       0.02162870       0.00062719      -0.02421310
H       14.20550000       9.86725000      23.29990000       0.00842368      -0.02358640       0.02145310
O        4.54664000      11.36520000      12.95910000       0.00979877      -0.00956497       0.04083290
H        5.29505000      11.98820000      14.59140000      -0.01768850      -0.01259500      -0.03045980
H        4.51289000       9.51629000      13.19260000      -0.00232585       0.02023160      -0.00592164
O        4.54967000       8.35983000       6.45533000      -0.02273430       0.00455205      -0.01029570
H        4.47508000       6.74235000       5.45386000      -0.01747650       0.03055790       0.02987690
H        2.87329000       9.07548000       7.12854000       0.03442860      -0.05172310      -0.00100903
O        2.27804000      19.32190000      24.67540000      -0.05506730      -0.01360200       0.03260080
H        2.44237000      19.06360000       0.77579500      -0.01111690       0.00861685      -0.05885810
H        0.33367400      19.31470000      24.26314000       0.07378160       0.00403994       0.02369360
O       12.59330000      20.67170000      10.91240000      -0.08182580      -0.07239850       0.05221910
H       10.88940000      18.71390000      11.25980000       0.05853100       0.07078100      -0.02073020
H       12.06100000      21.28410000      12.62570000       0.01981040      -0.00378280      -0.03323890
O        5.89073000       6.75885000      22.65520000      -0.01552980       0.04559830       0.07019450
H        5.84201000       7.78941000      24.45270000       0.00658251      -0.04405380      -0.07294220
H        4.45149000       7.41422000      21.69530000       0.01321080      -0.00484856       0.00424550
O       12.21860000      13.47200000      14.29600000       0.03805880       0.02960000       0.05231050
H       13.96470000      13.42960000      13.49400000      -0.03196220       0.01163110       0.02268190
H       12.41590000      14.43980000      16.08550000      -0.00856282      -0.03810370      -0.07856490
O       18.85890000      16.13500000      20.86040000      -0.02360100       0.03159050      -0.01845260
H       18.01250000      17.81650000      20.90510000       0.01051020      -0.02951540       0.00450771
H       19.71810000      15.94250000      22.45120000       0.01020580      -0.00096659       0.00792843
O       10.69450000      24.33930000       5.58022000       0.05208640      -0.03542500       0.04253830
H       12.42940000      23.40270000       5.68283000      -0.04921940       0.02477630       0.00488010
H       10.68040000      24.82270000       3.91682000      -0.00189384       0.01156430      -0.04281900
O       10.06070000      18.79590000      23.76850000       0.04669440       0.05617270      -0.06120810
H       11.35230000      17.47670000      23.21860000      -0.02403570       0.04475830       0.00725886
H       10.55270000      20.72460000      22.65860000      -0.01510930      -0.10245000       0.04594500
O       22.46570000       4.05045000       8.61832000       0.03469680      -0.00216956      -0.01307240
H       19.76460000       6.19443000       9.80356000      -0.02318440      -0.03172770       0.05412930
H       21.80850000       3.93271000       6.82337000      -0.00533849       0.01160570       0.02143580
O       22.82560000      20.70530000       0.98150100       0.00568836      -0.03007530      -0.06296950
H       22.99690000      20.64510000      24.84990000      -0.01195930       0.02231870       0.06791370
H       23.02250000      22.40850000       1.56685000      -0.00163507       0.00689958      -0.01897560
O       15.41240000      11.21660000      20.92300000       0.00326062       0.10160500      -0.03169280
H       14.44740000      11.86310000      19.44510000       0.00477794      -0.02399190       0.01876030
H       16.35460000      12.98840000      21.19390000      -0.01700760      -0.06613490      -0.00040357
O       18.34990000       3.03338000      22.08650000      -0.00127128      -0.04219240       0.02411220
H       19.28310000       1.45803000      21.70050000      -0.00163965       0.02382530       0.00220121
H       17.48110000       2.42981000      23.65070000       0.01512970       0.01816590      -0.03014330
O       13.57370000       5.82800000       7.27481000       0.01317120      -0.03980220      -0.02001060
H       11.86860000       6.12846000       7.69583000      -0.01821270       0.00662358       0.01239980
H       13.46060000       4.11237000       6.47338000       0.00910092       0.03494440       0.01550810
O       18.60510000      21.69770000      10.04890000      -0.05659210       0.07236390      -0.02063440
H       17.57370000      23.65560000       9.50803000       0.04535490      -0.10342600       0.03211330
H       17.25180000      20.55700000      10.68360000       0.00800839       0.02429190      -0.00814040
O        6.08921000      20.20740000       6.25742000      -0.00015896      -0.00935543      -0.00684636
H        6.40279000      22.01060000       6.06600000       0.00465900      -0.01929240      -0.00700399
H        6.44860000      19.20410000       4.70459000      -0.00403654       0.02463840       0.01566130
O       25.21198800      17.75380000      13.02030000       0.02915220      -0.00905298      -0.04405320
H       25.67692200      16.18570000      12.09320000      -0.00906714       0.01938910       0.01705580
H        0.04831100      18.99830000      11.73550000      -0.02172500      -0.01470610       0.02531240
O       19.97680000       9.57708000      21.71410000       0.01378510      -0.05795700       0.09488580
H       20.32250000      10.04780000      23.61070000      -0.00712807      -0.00394828      -0.06191060
H       19.74160000       7.66110000      22.20600000       0.00589018       0.05864400      -0.02921710
O        7.67540000      17.27420000      10.87360000       0.01725880       0.00165658       0.00104676
H        8.15597000      15.49700000      10.63440000      -0.00394232       0.01617250      -0.01189100
H        7.59323000      18.26110000       9.30717000      -0.00552121      -0.01531740       0.00349648
O       15.88070000       4.36409000       1.76125000      -0.02025310      -0.00695159      -0.04080550
H       15.43060000       3.10274000       0.48645000       0.00592699      -0.00546255       0.02263020
H       15.41170000       5.76950000       0.60048400       0.01162340       0.01194500       0.01991880
O        1.26104000       2.69126000      25.46095600       0.01348800       0.02126670      -0.01047520
H        2.38108000       2.20855000      24.05400000      -0.01089230       0.01797160       0.01641960
H        0.99941800       4.58939000      25.55623600      -0.00049495      -0.03875230      -0.00499676
O        4.31063000      10.94380000      19.13790000      -0.03042920       0.04113970       0.04690130
H        2.96717000      12.03440000      20.07770000       0.01749480      -0.03013690      -0.04027230
H        5.59756000      11.20430000      20.40600000       0.01047330      -0.01228390      -0.00888977
O        0.59097400       0.34122000       7.96170000       0.00876248       0.04316270       0.02237440
H        1.76172000       0.83893800       9.41967000      -0.03411120      -0.01070940      -0.03970780
H       24.35540000       2.77155000       7.77291000      -0.00061942      -0.02216090       0.03978260
O       10.31260000       3.94569000      22.83180000       0.02293440       0.06407750      -0.05043220
H        8.94857000       5.27524000      22.36540000       0.01588140      -0.03661190       0.02364830
H       11.83030000       4.84277000      21.92640000      -0.03794570      -0.03586830       0.03918440
O        8.33601000      15.14150000      19.28490000       0.05162870       0.01040510       0.00554504
H        8.77134000      16.24000000      20.71690000      -0.03158460      -0.01724760      -0.01753540
H        6.76214000      14.31840000      19.13720000      -0.01640580       0.00967787       0.01044640
O       22.19060000      10.00440000      13.38480000       0.06047390       0.03623480       0.06231940
H       22.50280000      11.82900000      13.78110000      -0.01877940      -0.03565890      -0.01468310
H       21.05340000       9.64834000      12.16170000      -0.04308030       0.00521688      -0.04452420
O       11.33070000       5.74961000      16.70430000      -0.03584500      -0.00784181       0.03116110
H       10.41560000       5.62035000      18.35130000       0.01701920       0.00431844      -0.03351440
H       10.01770000       5.22849000      15.50710000       0.01362220       0.00763861      -0.00125279
O        4.12012000       0.52306700      13.71080000      -0.00163653       0.00632702       0.07106770
H        4.82681000       0.25625000      15.54380000      -0.01716320       0.00009643      -0.06437490
H        2.51469000       1.39377000      14.08330000       0.01695900      -0.00969104      -0.01030530
O       20.73070000       3.39723000       4.39344000      -0.01228310       0.02503630      -0.06444670
H       18.98830000       3.28117000       3.77620000       0.00733890       0.00187939       0.00930652
H       21.38850000       4.67830000       3.12189000       0.00110453      -0.02389870       0.02603330
O       24.48400000       7.79105000      17.80740000       0.03876100      -0.02939500      -0.01990810
H       23.78220000       9.39723000      17.61940000      -0.02022340       0.02586230       0.00099167
H       25.67510000       7.73941000      16.37000000      -0.00951057       0.00658241       0.02188680
O       22.75990000      23.41910000      14.23340000      -0.03711610       0.00585759       0.02299270
H       20.98930000      22.63460000      13.93930000       0.04915190       0.04013130       0.00527240
H       22.77160000      25.18406500      15.04360000      -0.01429970      -0.04554490      -0.02646930
O        5.15754000       2.23189000       4.37923000      -0.04513120      -0.02810110      -0.02593450
H        3.73994000       1.17694000       5.25734000       0.03334060       0.03048560      -0.00998855
H        4.41726000       2.37982000       2.64420000       0.00601725       0.00067228       0.02963670
O        8.66955000       6.14103000      11.55410000      -0.01695630      -0.00318734      -0.04060700
H        7.58176000       4.97729000      10.44690000       0.02528520       0.01717560       0.02849010
H        8.92596000       7.66827000      10.51170000      -0.00876222      -0.01439570       0.01825390
O       22.05380000      15.18310000      24.60150000       0.07150790      -0.00114576      -0.00300581
H       23.39920000      14.02780000      23.75700000      -0.04398960       0.02788910       0.01972720
H       23.16350000      16.54100000      25.34793000      -0.02985750      -0.03126860      -0.00809213
O       15.54180000       2.91705000      15.99880000       0.04780750       0.02583310       0.02444850
H       18.81490000       4.06604000      18.03100000      -0.05158330      -0.01659740      -0.02502020
H       14.29540000       4.00480000      16.86600000       0.01187260      -0.00294183      -0.01048990
O       22.67730000      14.67670000      16.44160000      -0.00529334       0.05694630      -0.01305230
H       21.51860000      15.50380000      17.64000000      -0.00152951      -0.02211030      -0.00837790
H       23.02570000      16.16970000      15.25790000       0.00073898      -0.03294070       0.01861240
O       23.63390000      20.88650000      19.27060000      -0.08317080      -0.07389630      -0.05849070
H       22.39570000      19.04310000      19.05390000       0.05861510       0.08618410       0.01882610
H       23.02230000      21.64980000      17.54000000       0.02740850      -0.01070240       0.04117610
O       15.40170000      20.86700000      22.12360000       0.00842889      -0.03481300      -0.02910090
H       14.95570000      21.78170000      23.58340000       0.00702074       0.02337260       0.00646678
H       16.12300000      21.86600000      20.77380000      -0.01291500       0.00610204       0.01369900
O       19.72370000      16.80350000       6.25659000      -0.00363473       0.03486010       0.00927223
H       19.18640000      18.51290000       6.94234000       0.02138180      -0.03399400      -0.01285690
H       21.40310000      16.97020000       5.40533000      -0.02635890      -0.00553931       0.02345180
O       23.79020000       3.26776000      15.17940000       0.00318400       0.06554060      -0.01555850
H       23.57600000       3.70762000      13.38690000       0.00148771      -0.01889530       0.01050910
H       23.99170000       5.14198000      15.75580000      -0.01269940      -0.05624690       0.00479840
O        7.25481000      16.94720000       1.89858000      -0.01434780       0.00671759      -0.01984580
H        8.80452000      16.35080000       2.66126000      -0.00558433      -0.00272541      -0.01709440
H        7.35285000      17.28120000       0.03400300       0.01393450      -0.00502844       0.04355750
O        9.11141000      25.55927000       0.10474200       0.02540320       0.04134700       0.00711009
H        8.26228000       0.52242600       1.63796000       0.00886031      -0.00769606      -0.02940330
H        9.86669000       1.14728000      24.79590000      -0.03859680      -0.00797362       0.00786316
O        7.10970000       1.76378000       9.24571000      -0.03090310       0.00016970       0.03802360
H        6.55229000       0.45720800      10.52730000       0.02348240       0.02527610      -0.03618190
H        8.31712000       1.41304000       7.97437000       0.00464773      -0.02634290       0.00206017
O        2.68271000      12.00100000       3.37886000      -0.02017960      -0.02611830       0.03925330
H        3.10824000      10.45510000       4.60563000       0.01596450       0.04389770      -0.06084040
H        3.69836000      12.33650000       1.92735000       0.01053630      -0.01089980       0.01051700
O       17.42600000      15.23360000      12.84260000       0.05192780      -0.03006710      -0.05069190
H       18.81400000      14.15680000      13.56690000      -0.02628650       0.02128770      -0.01163750
H       18.87610000      14.93750000       9.46386000      -0.01999980       0.01587720       0.04661800
O       14.67560000      24.37960000      25.76042100      -0.01560870       0.02241170      -0.03641090
H       12.83960000      24.31920000       0.04286800       0.01346930      -0.01879500       0.01239380
H       15.54120000      23.92790000       1.44027000      -0.00530927      -0.00821032       0.03162140
O        4.91896000      17.74660000      15.61480000      -0.05809450      -0.00392405      -0.02398230
H        5.12101000      16.97360000      13.87700000      -0.00515083       0.02339800       0.03610330
H        2.99913000      18.08180000      15.83760000       0.05686430      -0.01421810      -0.01527960
O       21.20020000      23.70780000       4.83165000      -0.02547620       0.00763049      -0.00247571
H       21.45220000      25.51963200       5.11462000       0.01755080      -0.02102170      -0.00204043
H       22.65330000      22.62530000       4.83346000       0.00393059       0.01677070       0.01558070
