192
Lattice="23.90357 0.0 0.0 0.0 23.90357 0.0 0.0 0.0 23.90357" Properties=species:S:1:pos:R:3:force:R:3 TotEnergy=-1103.41858 cutoff=-1.0 nneightol=1.2 pbc="T T T"
O        0.59263000      21.17859000      21.57634000      -0.05148380      -0.02427550      -0.00986312
H       22.73570000      20.95558000      20.83724000       0.03782420       0.01023150       0.01146360
H        0.93653000      19.42816000      22.13894000       0.00731387       0.00880740      -0.00268457
O        0.15916000      22.65183000       3.06136000       0.05470690      -0.01661050      -0.04304620
H        2.01786000      23.14723000       3.27272000      -0.03724800      -0.01177750       0.00544147
H        0.32866000      21.66713000       1.37346000      -0.00938079       0.02918630       0.04222550
O        9.99498000       2.60632000      10.25820000      -0.00433202       0.05568180      -0.02154640
H       10.08610000       4.38148000      10.88520000       0.00890469      -0.01816340      -0.00773715
H       10.22950000       1.54393000      11.63570000       0.00620369      -0.03681510       0.03161880
O       17.71752000      14.42646000      23.84376100       0.04725120       0.02700880      -0.05883020
H       19.09541000      14.33834000      22.29285000      -0.04178560       0.00124294       0.05672180
H       17.61518000      16.25326000       0.32986000      -0.00705882      -0.02542370      -0.00168188
O        7.72276000       6.36373000      16.92010000       0.02938160       0.00268607      -0.02821340
H        8.23231000       7.61813000      18.21040000      -0.00429499      -0.00394311      -0.00596981
H        9.18606000       6.31783000      15.65670000      -0.03920030      -0.00266304       0.03961840
O       17.35973000      11.78870000       8.80912000       0.04380820       0.11482700      -0.04837320
H       16.99647000      10.14170000       8.79012000      -0.02446550      -0.09504270      -0.00897774
H       18.17949000      12.32070000       7.07470000      -0.01690890      -0.02211620       0.03786870
O       20.39653000      23.89090000      12.76360000       0.06285830       0.03398390       0.16689100
H       22.12363000      23.34770000      13.05360000      -0.01100880       0.00808594      -0.02390260
H       19.69603000      23.61900000      11.32650000      -0.05182570      -0.04218090      -0.14291800
O        2.25577000      18.37874000      11.69310000      -0.01604360      -0.03936390       0.00948028
H        1.96160000      16.54214000      12.35290000       0.00144971       0.04299790      -0.03563610
H        1.17619000      18.63634000      10.17430000       0.00733055      -0.00528712       0.01741620
O        6.24993000      14.53894000      22.42090000       0.01173090       0.06764740       0.01117830
H        7.35353000      16.02514000      21.77800000      -0.01561160      -0.04134170       0.01119630
H        6.31513000      13.12294000      21.39180000       0.00848785      -0.02435070      -0.02635660
O        8.90888000      18.80374000      21.64304000       0.02275950       0.00025626       0.00173583
H       10.75330000      19.12514000      21.74964000      -0.01336420      -0.00473274      -0.01071100
H        8.26238000      19.45294000      23.20744000      -0.01112570       0.00469418       0.01009220
O       13.25427000       0.29662200       6.87754000       0.02203210      -0.02219020      -0.03276820
H       12.60737000       1.49257000       8.08333000      -0.00510956       0.01814310      -0.00539682
H       13.69467000       0.82583600       5.08319000      -0.01626080       0.00230422       0.03608230
O       13.59767000       1.42173000       1.77896000      -0.00765084       0.00376305      -0.05465100
H       11.89627000       2.00463000       1.27106000       0.00265819      -0.00057335       0.02561000
H       14.24055000       1.30863000      23.83503000       0.00281630      -0.00437820       0.03754820
O       14.54570000      18.85214000      11.70567000       0.01189140      -0.01660000       0.00906429
H       14.30640000      17.28884000      10.67887000      -0.01238390       0.02396640       0.00327906
H       13.08110000      19.97004000      11.85377000      -0.00241305      -0.00556346      -0.00388764
O        1.16293000      13.24620000      12.63563000      -0.00886651      -0.00435792      -0.02333020
H        1.42103000      12.04180000      11.21953000       0.00501688       0.02174400       0.02221030
H        2.72393000      13.39440000      13.69803000      -0.00500590      -0.02521430      -0.00473464
O       22.73742000       3.54635000       1.57019000       0.06865740      -0.01599230      -0.03497640
H       23.29172000       1.80905000       2.15566000      -0.02260440       0.01943100       0.00544569
H        0.39378000       3.70886000       0.33148900      -0.05023610       0.00284978       0.02790120
O       22.59754000      19.18480000       7.64613000       0.02643080       0.02183590      -0.05587460
H       22.81894000      20.22270000       6.00843000       0.00328675      -0.02260360       0.04359500
H       20.88084000      19.55190000       7.99793000      -0.02219730       0.00438469       0.00943064
O       14.17274000      10.79600000       1.15793000       0.02858460       0.02559020      -0.01531320
H       13.31464000      10.44370000      23.53800000      -0.02620670      -0.02345720      -0.00822140
H       15.24354000      12.10310000       0.31243000       0.00345011      -0.00774271       0.02903370
O        6.77017000      14.63196000       3.76287000      -0.05482810      -0.01726360       0.00086498
H        5.66267000      14.07736000       5.23427000       0.02564360       0.00798188      -0.04317810
H        5.92407000      13.94466000       2.13807000       0.02338710       0.01516410       0.04362780
O       20.36126000      20.76800000      17.74083000      -0.10110900       0.00448443      -0.04023740
H       20.16516000      21.94970000      16.29203000       0.01851080      -0.00569841       0.01643040
H       18.29636000      20.25930000      17.50023000       0.07733680      -0.00170836       0.02003720
O        8.74216000       3.80947000       1.34444000       0.00760238      -0.04036780      -0.09892580
H        7.15786000       3.48267000       2.12909000      -0.00933430      -0.01218380       0.01988130
H        8.45466000       2.68337000      23.27387400       0.00726417       0.05696130       0.06777970
O        7.33923000      18.98540000      11.13557000       0.02385680      -0.08721340      -0.00626971
H        7.54843000      17.00420000      11.16007000       0.01900740       0.05434450      -0.00985459
H        5.58873000      18.83900000      11.37527000      -0.04441060       0.02232750       0.00480204
O       10.72837000       7.68556000      11.09856000       0.14148700      -0.04441140       0.06361690
H        9.74387000       8.11019000       9.87876000      -0.11018700       0.04688580      -0.10714400
H       12.38407000       7.66069000      10.01626000      -0.02834750      -0.00529558       0.04118120
O        7.73288000       2.28308000      20.20695000      -0.01466840       0.01730850       0.03049770
H        8.65366000       0.93089300      19.59597000       0.01695160      -0.04972930      -0.01434670
H        7.97423000       3.47762000      18.87731000      -0.00432168       0.02817670      -0.00852222
O       18.29613000       4.98337000      22.57860000      -0.00428865       0.02753020       0.01780070
H       17.47973000       6.42852000      23.36700000      -0.00983097      -0.00191730      -0.01569090
H       19.30863000       4.60739000       0.13523000       0.01523650      -0.02067230      -0.00355820
O       19.71443000      12.41586000       4.10903000      -0.00441879      -0.04210420       0.07104440
H       19.08386000      12.93446000       2.60553000      -0.03476820       0.02242150      -0.06381150
H       21.34973000      13.08536000       4.17523000       0.04045880       0.01979830       0.00760876
O        8.89838000      13.86963000       9.91755000       0.00280932      -0.00380349      -0.00103466
H        8.42331000      12.80103000       8.52334000      -0.02810070      -0.01342920      -0.00471014
H       10.66660000      13.80523000       9.44338000       0.01687090       0.02058120       0.01742600
O        8.34087000      21.68840000      17.41540000       0.00391159      -0.01467830       0.01264980
H        6.61957000      21.71950000      16.75130000       0.00766824      -0.01140780       0.01355550
H        8.54897000      20.28800000      18.72250000      -0.01362530       0.03007440      -0.02502940
O        8.33403000       9.26893000       1.55806000      -0.01893240       0.04145760      -0.00119288
H        8.40403000       7.56043000       1.14056000       0.00311727      -0.04448320      -0.00251517
H        6.48243000       9.75873000       1.35946000       0.01704830      -0.00798493       0.01097720
O       14.00720000       8.61683000      20.12360000       0.03168220       0.12835600       0.06572920
H       15.01420000      10.00173000      19.26800000      -0.01745060      -0.02673160       0.01930690
H       13.98920000       7.46803000      18.93380000      -0.00877052      -0.09524470      -0.08515480
O        2.40805000       2.34727000      21.25790000      -0.06961720      -0.05565950      -0.01389780
H        1.27208000       0.53987000      20.89940000       0.06452830       0.07168680       0.02000910
H        4.17565000       1.97267000      21.24580000       0.00822398      -0.01069520      -0.00476721
O        0.57769900      14.30820000       4.68549000       0.01966350       0.06282870      -0.08266830
H        1.20656000      15.01650000       2.65963000      -0.02187770      -0.03357300       0.07906120
H        0.15565000      16.00310000       5.37385000       0.00302365      -0.02483930       0.00082969
O        2.00365000       1.16440000      13.37820000       0.01662440      -0.26649200      -0.11168400
H        1.98688000       0.21252100      14.87830000       0.01116470      -0.02863890       0.01821390
H        1.87829000       2.56720000      13.90280000      -0.02940750       0.29617200       0.10295800
O       12.75234000       5.04126000      16.85914000       0.00800489      -0.07126390       0.01219960
H       13.59674000       4.94476000      15.24464000       0.00744214      -0.00097008       0.00342588
H       12.98374000       3.18626000      17.59464000      -0.00377968       0.06530120      -0.02288370
O        5.66864000       1.69696000       4.91847000       0.00407791      -0.01354190       0.05930330
H        5.05887000       2.85086000       6.34027000       0.01712940      -0.03081530      -0.02971820
H        6.79062000       0.31356000       5.94817000      -0.03110570       0.04237990      -0.02976160
O       11.84054000      14.18333000       3.78341000       0.11384800      -0.00633700      -0.01010840
H       12.77514000      12.55373000       3.15775000      -0.03830080       0.03606880       0.00451057
H       10.17514000      14.12653000       4.09389000      -0.09052130      -0.01922640      -0.00009425
O       19.56760000      10.48073000      12.93800000       0.02145940       0.02100750      -0.04945580
H       21.36800000      10.85853000      12.98240000      -0.00803174      -0.00394063       0.01295290
H       19.25490000      11.16273000      11.08580000      -0.00749923      -0.01505390       0.05115760
O        7.54037000      10.18617000       6.70347000      -0.01783660       0.00227368       0.06814960
H        7.96937000       9.63387000       5.12313000       0.01410780      -0.01466180      -0.05823200
H        5.92137000       9.35657000       7.18171000       0.01052650       0.01414710      -0.00948159
O        2.11724000       6.28779000      17.30620000       0.02008380      -0.01566250       0.02014580
H        2.17114000       5.17794000      18.89460000       0.00681130       0.01704260      -0.03805280
H        3.88564000       6.50710000      16.64300000      -0.02550920      -0.01078370       0.01719720
O        2.92227000       8.83107000       7.95083000      -0.01196590      -0.10740000       0.01114200
H        3.28007000       6.88117000       8.43503000       0.01195850       0.06580900       0.01052490
H        1.65807000       8.05967000       6.80643000      -0.00142566       0.03783520      -0.01111180
O       13.52410000      14.98160000       8.48893000      -0.00597100      -0.02306810      -0.02486490
H       14.83020000      13.62290000       8.35013000      -0.01227730       0.01759370       0.00762641
H       12.52210000      14.82500000       6.84263000       0.02961360       0.00874574       0.01456160
O        3.01147000      20.65171000      16.43523000      -0.02184620      -0.02041950      -0.01533080
H        2.12997000      19.51991000      17.60813000       0.01245420       0.01530630      -0.00832452
H        2.55517000      19.89277000      14.76343000       0.01105080       0.01109590       0.01699760
O       15.66613000       6.89252000       8.64293000      -0.05744500       0.07225250       0.02313430
H       15.69393000       6.81939000       6.89463000       0.00963976      -0.01696740      -0.05069720
H       16.60173000       5.74833000       9.46793000       0.04523000      -0.05864250       0.03597080
O       15.91399000      12.37044000      16.30276000      -0.11341700       0.03832550       0.14275400
H       17.30296000      12.24024000      15.50301000       0.12771000      -0.03123940      -0.10872200
H       14.27336000      12.14664000      15.73599000      -0.01957790      -0.00952346      -0.03481530
O        5.09716000       3.82497000       9.91667000      -0.05248740      -0.03958230       0.04050010
H        6.84516000       3.22607000      10.31907000      -0.02369370      -0.00165546      -0.00815695
H        3.71216000       2.65297000      10.97157000       0.06925120       0.04036970      -0.04345700
O       17.93980000      21.43912000       8.86638000      -0.03262940       0.03565140      -0.01868820
H       16.43260000      22.44228000       8.14764000       0.03732600      -0.02781190       0.01529510
H       17.14170000      20.47449000      10.20280000      -0.00960062      -0.00525623       0.00021059
O       13.93104000      20.18219000      20.42803000       0.00689774      -0.01282550       0.05177760
H       14.62024000      18.97734000      19.20623000      -0.00517638       0.00193064       0.00097935
H       14.45014000      19.52774000      22.15723000      -0.01022380       0.01367090      -0.03291530
O        4.63816000      13.08487000      15.72872000      -0.01333880       0.01194380       0.03603690
H        4.18175000      12.51607000      17.41042000      -0.02433650       0.01082040       0.00212567
H        6.12406000      12.12337000      15.75709000       0.04751970      -0.01324870      -0.03036440
O       23.08010000      16.56720000      16.97220000      -0.03555990       0.05352590       0.03441430
H       22.00460000      18.18650000      16.69600000       0.01841380      -0.03140250       0.01703310
H       23.39200000      16.03110000      15.35080000       0.00929631      -0.02660940      -0.04457750
O       10.59530000      22.07290000      12.70817000      -0.02238150      -0.02630820      -0.00018336
H       10.07050000      22.00050000      14.49467000       0.00737969       0.00005721      -0.00641998
H        9.31105000      20.70510000      11.99257000       0.02290560       0.03515910       0.01782340
O       23.51250000       8.36146000       3.84793000      -0.03521080      -0.04988790      -0.01958570
H       22.10310000       9.45816000       4.35523000       0.00649442      -0.01535810      -0.01087010
H       22.79050000       6.62536000       2.96913000       0.02618610       0.05591190       0.03275780
O       15.64294000       6.27347000       3.66551000       0.01478790      -0.07334650       0.01767760
H       14.48669000       7.49746000       3.24395000      -0.03331780       0.03510930      -0.02034450
H       14.74484000       4.57397000       3.57850000       0.01871690       0.03882060      -0.00845811
O       15.85760000      17.71824000      16.85560000      -0.02723770      -0.03028760      -0.05094640
H       14.72640000      17.85114000      15.26180000       0.03235940       0.01303110       0.02787710
H       15.94650000      15.84024000      16.88320000       0.00739776       0.01456630       0.00747204
O        1.62357000      16.20060000      23.27533000      -0.01024730       0.03522850       0.02463990
H        3.32694000      15.96720000      22.69973000       0.02202740      -0.01439690      -0.00155809
H        0.65002000      14.95720000      22.50173000      -0.01797070      -0.02343980      -0.01466060
O       14.34303000      18.74213000       1.79756000      -0.07619190       0.01013100       0.03995990
H       13.93013000      20.51313000       2.44283000       0.01281980      -0.04255510      -0.01631010
H       12.71263000      17.65433000       2.49348000       0.06824710       0.02929810      -0.02537320
O       21.59000000      13.34210000      20.45524000       0.03228870       0.06584970       0.00118773
H       20.53680000      12.01180000      20.05564000      -0.02289450      -0.03956250      -0.02641420
H       21.80420000      14.71250000      19.05604000      -0.00515666      -0.03135370       0.01127730
O        6.10117000      19.90223000       2.63330000      -0.02942650      -0.00238775      -0.05388760
H        5.81287000      18.25233000       3.24654000       0.00308058      -0.02330830       0.00692817
H        7.06887000      20.70183000       3.82643000       0.02990800       0.02515830       0.04165430
O        8.70267000      22.09714000       6.90293000       0.07080950       0.12897100      -0.16285400
H        8.66458000      21.13484000       8.16513000      -0.01206030      -0.11418500       0.14935500
H       10.70180000      22.79374000       6.75933000      -0.06019210      -0.01782520       0.00565367
O        3.61364000      10.56223000       1.43940000      -0.09453330      -0.02131660      -0.05367250
H        2.06226000      10.06933000       2.63998000       0.04824850       0.00718742      -0.03426850
H        2.65468000      10.28633000      23.35946200       0.04719800       0.01375790       0.07547710
O        9.13367000      11.44657000      14.43390000       0.02888430      -0.03234200      -0.02094600
H        9.80177000       9.67017000      14.06990000      -0.01919150       0.05348960       0.00131995
H        9.15287000      12.34197000      12.74210000      -0.00304246      -0.01713130       0.02203740
O       17.67451000       4.54031000      13.50360000       0.02805320      -0.06773620      -0.00315965
H       18.71000000       6.03784000      13.54610000       0.00572961      -0.00643508       0.00230856
H       18.79418000       2.74060000      13.52540000      -0.03214720       0.07807110      -0.00155175
O        2.48573000      10.74857000      20.00142000      -0.06122970       0.09782080       0.03544700
H        0.66963000      11.82697000      19.85248000       0.06576070      -0.04580980       0.00765967
H        2.24913000       9.35597000      18.99414000      -0.01152350      -0.05304040      -0.03380730
O       20.42620000       8.23889000      18.35593000       0.11232200       0.19735400      -0.15201200
H       20.03040000       6.94632000      19.06593000      -0.08588800      -0.22367500       0.14044300
H       21.83960000       7.51727000      17.29523000      -0.02430230       0.02947840       0.01660730
O       15.27030000       1.41863000      20.63583000       0.01641070       0.01557780       0.01148840
H       16.07720000       3.07453000      21.14493000      -0.00025270      -0.03005880      -0.00833046
H       16.62060000       0.14333000      20.63113000      -0.01898170       0.01626710      -0.00184765
O        8.91487000       9.95892000      20.47150000      -0.05007240       0.00591866      -0.00755732
H       10.63837000       9.85639000      20.21730000       0.04654630      -0.00341081      -0.00485705
H        8.64157000       9.84413000      22.27920000       0.00497632      -0.00217837       0.00711454
