192
Lattice="24.27368 0.0 0.0 0.0 24.27368 0.0 0.0 0.0 24.27368" Properties=species:S:1:pos:R:3:force:R:3 TotEnergy=-1103.29951 cutoff=-1.0 nneightol=1.2 pbc="T T T"
O       22.35590000      20.55857000      17.88606000      -0.03232870      -0.02156660      -0.02744770
H       20.75930000      20.61358000      16.78606000       0.02734150       0.01237070       0.02063590
H       22.89760000      18.82021000      17.43716000       0.00867838       0.02182770       0.00909508
O       22.08432000      21.71182000      23.18501000       0.01298760       0.08977990      -0.03936950
H       22.67662000      23.74832000      23.07279000      -0.02006810      -0.09510180       0.01119200
H       21.67912000      21.39302000      21.34716000       0.01175510      -0.00382859       0.02774090
O       10.23140000       3.60895000      17.02680000       0.03403450       0.04815870       0.01681700
H       11.91660000       3.74653000      17.98170000      -0.03008640      -0.01162350      -0.02250840
H        9.65566000       1.97339000      16.85320000      -0.00480026      -0.03875140       0.00068748
O       18.31918000      15.66968000      21.58354000      -0.03271590      -0.07769340      -0.17655200
H       19.68188000      14.76634000      20.84592000       0.02168840       0.00106993       0.01012800
H       18.23783000      16.41048000      23.00630000       0.01601170       0.07278450       0.15090800
O        5.25231000       8.77112000      19.49870000       0.02552790      -0.00258479      -0.02819660
H        6.52107000       9.38592000      20.70870000      -0.00785558       0.00173786      -0.01640690
H        6.20991000       8.78012000      17.77520000      -0.02104790      -0.00252535       0.03972810
O       20.03266000       8.36813000       6.99864000       0.09115060       0.09345120      -0.01810260
H       19.32483000       7.22896000       7.99277000      -0.05532690      -0.07579710       0.04954440
H       19.38183000       8.59553000       5.39148000      -0.03154750      -0.01470470      -0.03406270
O       20.28692000       2.19682000      11.16870000       0.01071940      -0.03406240       0.01796980
H       22.04682000       2.26622000      11.94700000      -0.03275140      -0.02294760      -0.02453540
H       19.46212000       0.36982000      11.00730000       0.03275390       0.04625980       0.00410335
O       22.07858000      16.00826000       6.86256000      -0.02675660      -0.01663410       0.03135700
H       22.11501000      16.83996000       5.32584000       0.02228380       0.02846880      -0.04278150
H       20.38412000      15.29916000       6.63262000       0.00506861      -0.01138140       0.02049570
O        7.18562000      16.05496000      18.01150000       0.01085310      -0.05204380       0.08978730
H        6.53192000      15.35766000      16.50690000      -0.02002880      -0.01428530      -0.02009790
H        7.08522000      14.53876000      19.54140000       0.00600563       0.06190350      -0.06762900
O        8.88968000      21.63936000      23.03516000       0.03698300       0.01627170      -0.02634320
H       10.76950000      21.40626000      22.74906000      -0.03165820       0.00198787       0.01682330
H        8.47283000      20.82456000       0.33488000       0.00318460      -0.01797190       0.01332760
O       14.52543000       1.40992000       7.85073000      -0.02291350       0.01260840      -0.04087900
H       14.07228000       1.95806000       6.08743000       0.00979039      -0.00319879       0.02197040
H       12.89048000       0.98597900       8.58791000       0.00764647      -0.00734655       0.00574861
O       13.21708000       4.30602000       3.32104000      -0.08185910      -0.02755210       0.00356788
H       11.04508000       3.79232000       3.42074000       0.06656860       0.03257310       0.00261333
H       13.60988000       3.59802000       1.68574000       0.01046180      -0.00443572      -0.00106570
O       15.70090000      17.73916000      10.11158000      -0.00217413       0.02214600       0.07377610
H       17.15300000      16.69476000       9.97438000       0.00740088      -0.01427080      -0.00854264
H       15.78460000      18.14916000      12.05778000      -0.00461169      -0.00748646      -0.06496740
O        4.25632000      14.63100000      13.03482000      -0.01669720       0.01599800       0.00633090
H        2.65122000      15.48760000      13.76152000       0.03155220      -0.02254330      -0.00237338
H        3.82512000      12.91060000      12.58142000       0.00149702       0.00422460       0.00725673
O        0.49861600       1.19145000       1.54915000       0.01586140       0.04170390      -0.03395420
H        0.09104400       0.20400900       2.96228000       0.00642244      -0.01615140       0.02747650
H        2.34072000       1.71211000       1.38653000      -0.03419760      -0.02307780       0.01008420
O       18.19186000      22.45560000       8.85542000      -0.03259090      -0.01775100      -0.01615170
H       16.88046000      23.66020000       8.05892000       0.01867290      -0.02388820       0.02153970
H       17.26236000      20.77220000       9.08212000       0.01929330       0.04128900      -0.00121694
O       15.29226000      12.02630000      24.18920000      -0.12168800      -0.12241700       0.00114919
H       14.70926000      11.16290000      22.45380000       0.01698930       0.01535340       0.04606510
H       16.40686000      13.09600000      23.70010000       0.10531400       0.10318300      -0.04733020
O        4.11618000      15.97694000       4.08638000       0.00382900      -0.03191900      -0.07268340
H        3.65268000      16.15954000       5.72818000      -0.00886627       0.01102890       0.06583280
H        3.95008000      14.15764000       3.67438000       0.00114687       0.02014410      -0.00102160
O       18.30104000      20.91050000      14.67682000      -0.09456890       0.04111020       0.01572150
H       17.38244000      22.80860000      14.39332000       0.03300370      -0.07451790       0.00980581
H       16.77074000      19.89260000      15.64782000       0.05398470       0.03754340      -0.02137490
O        8.05374000       4.20068000       3.96734000       0.04272820      -0.00693729       0.10935800
H        7.45384000       2.99368000       5.42269000       0.01784960       0.04467230      -0.02169380
H        6.99364000       3.59568000       2.79213000      -0.05018150      -0.03021170      -0.07701910
O        5.80252000      17.64770000       9.04538000       0.09616170       0.09419690      -0.08441660
H        7.86472000      17.90810000       9.02838000      -0.07335480      -0.00986803      -0.00599020
H        5.43052000      16.46070000      10.13878000      -0.02574230      -0.08411730       0.08947840
O        7.80108000       7.97774000      14.91924000       0.06657620       0.03003990      -0.04235420
H        9.15408000       9.12214000      13.92784000      -0.06765690      -0.00146495       0.02877690
H        9.15128000       6.76031000      15.01294000      -0.01350900      -0.03031390       0.02464630
O        5.71226000       1.51755000       0.60519700       0.01616510       0.00311050      -0.04651300
H        5.45409000       2.51176000      23.20890000       0.00318278      -0.02968870       0.04209860
H        7.01312000       0.14412500       0.27383400      -0.02683150       0.02611740      -0.00285062
O       20.03762000       3.64773000       0.45582000       0.12764300      -0.15099800      -0.07298970
H       19.59132000       4.90835000       1.35982000      -0.04153520       0.12452900       0.09476800
H       21.94792000       2.88244000       1.11712000      -0.06586700       0.02865470      -0.01802400
O        0.21000400      11.27244000       6.65792000       0.05503790      -0.05483050      -0.01838430
H       22.91644000      10.55724000       6.88742000      -0.04565990      -0.05232030       0.00418814
H       23.97724800      12.81834000       7.09022000      -0.01085930       0.10402400       0.01731490
O       10.53840000      11.91182000      12.86450000       0.00639102      -0.03698730      -0.06529490
H        9.79138000      11.76462000      10.94360000       0.02774330       0.00099395       0.06085680
H       11.99660000      10.68732000      12.84080000      -0.01974840       0.03105050      -0.00547942
O        7.34698000      21.78800000      18.35400000      -0.04998250      -0.05593110      -0.06756470
H        6.69358000      19.97510000      18.57760000       0.00225228       0.03013950      -0.02941100
H        8.18748000      21.53680000      19.80500000       0.05188940       0.01827310       0.09190910
O        7.77662000      10.15252000       2.35674000       0.09814200       0.03178880      -0.02294750
H        7.76152000       8.66372000       3.20044000       0.02767750      -0.07353390       0.03201990
H        6.12922000      10.33312000       2.41434000      -0.12615600       0.03595550      -0.01104400
O       14.17680000       9.50852000      19.88890000       0.01680890       0.02646320      -0.01624390
H       15.57590000       9.77162000      18.61740000      -0.01696670      -0.00130454       0.01667720
H       14.13590000       7.71912000      20.09670000      -0.00030062      -0.01638710      -0.00140264
O        2.88232000      23.99826000      17.64530000       0.03247930       0.14630400      -0.01846610
H        1.48028000      23.18256000      17.70760000      -0.13676200      -0.07263580       0.01399630
H        4.05039000      22.83616000      17.68960000       0.09369850      -0.07834410       0.00489886
O       23.59298800      18.14180000       2.43733000       0.04214170      -0.07889870       0.04336140
H        0.90400300      16.69630000       2.55115000      -0.05309360       0.07600670      -0.01227540
H       23.66412200      19.46030000       1.23460000       0.01148210       0.01200950      -0.02992770
O        1.17094000       1.03648000      12.81530000      -0.00212907       0.01668590      -0.01796690
H        2.19943000       0.15485400      11.54950000      -0.01043270      -0.00553801       0.00779543
H        1.41859000       0.18526100      14.36370000       0.00616075      -0.01137420       0.01597540
O       14.80366000       4.42314000      18.97626000       0.00921721       0.04876640      -0.08684620
H       16.33266000       4.39934000      17.82436000      -0.02392240      -0.00118222       0.01592960
H       15.24336000       3.50754000      20.33506000       0.02102140      -0.05170260       0.07357000
O        5.86324000       2.20994000       8.58818000      -0.01986730      -0.04027270      -0.01053770
H        5.23504000       3.41044000       9.99038000      -0.00282789      -0.02803780      -0.02620720
H        4.77794000       0.52244000       8.25018000       0.02563520       0.05694940       0.02742140
O       14.10876000      14.59972000       4.36813000       0.00539576       0.06080450       0.06925070
H       14.22806000      13.41602000       3.17411000      -0.00618666      -0.06168660      -0.07707570
H       12.49356000      15.39902000       4.34068000      -0.00429608      -0.00008268      -0.00123218
O       18.12150000      10.03842000      16.25260000      -0.08722270       0.15270200      -0.02879280
H       16.97710000      10.43862000      14.51580000       0.04918850      -0.03159280       0.04689690
H       18.83030000       8.56702000      16.39460000       0.04974930      -0.12747800      -0.00676397
O        8.19998000      10.10648000       8.41812000      -0.05194650       0.05975800       0.01709920
H        7.75228000      10.84098000       6.80849000       0.02190990      -0.00930504      -0.01322860
H        6.68428000      11.14578000       9.22653000       0.03672060      -0.05025140      -0.00131748
O        3.52386000       3.84655000      20.62800000      -0.00466944       0.04930880       0.02866480
H        4.67216000       2.84105000      19.81250000       0.02029390      -0.04507800      -0.03393680
H        4.34356000       5.48714000      20.32430000      -0.01070290       0.00582292       0.00317963
O        3.67308000      10.23978000      10.69092000       0.25605400      -0.17337800       0.22612800
H        3.48348000       8.31388000      10.71032000       0.00776884       0.04381460       0.00681101
H        2.63338000      10.73698000       9.78972000      -0.27155500       0.12712900      -0.23593300
O       17.79770000      13.16200000       7.39372000      -0.03958380       0.10837000      -0.01035090
H       18.35030000      11.60650000       7.59122000       0.04117870      -0.10771400       0.00297289
H       16.51210000      13.27230000       6.07272000       0.00004354      -0.00203644       0.01522620
O        2.98978000      22.04124000       9.33512000      -0.04947830       0.03177810      -0.03419080
H        3.80958000      20.46235000       9.31002000       0.01940810      -0.02864910       0.00140975
H        1.41038000      21.89129000       8.17482000       0.03487910       0.00543176       0.02502230
O       17.02002000       5.52693000       9.74112000      -0.08490590       0.06729860      -0.03481150
H       15.45322000       5.17052000       8.65812000       0.04847600      -0.00331826       0.02983400
H       17.89572000       4.06750000      10.02112000       0.03052680      -0.05712500       0.01074940
O       15.33286000      18.58926000      18.22250000      -0.00661670      -0.03400120      -0.00469969
H       16.48940000      17.27876000      18.80861000       0.01558960       0.01301270       0.01345370
H       14.01138000      17.36776000      17.75476000      -0.00625794       0.02179640      -0.00950222
O        3.95584000       5.13788000      12.07718000      -0.11891600      -0.08953010      -0.02315060
H        5.11504000       5.61008000      13.11098000       0.12386300       0.06827970       0.08527370
H        3.21694000       3.78578000      13.41908000      -0.00242901       0.03113290      -0.06332750
O        9.92083000      23.57311100       9.98550000       0.01386440      -0.01161540      -0.00859529
H        9.88207000      22.58505000      11.62310000      -0.01013700       0.02537460      -0.00614019
H        8.55415000       0.48829300       9.59013000      -0.00798315      -0.00748707       0.01202860
O       14.18846000      20.56297000      22.95452000      -0.04623290       0.10589400      -0.08752720
H       14.74696000      20.06233000      21.30662000       0.00777370      -0.01520390      -0.00161539
H       14.54156000      19.58683000      24.22102000       0.03882610      -0.08590910       0.08990430
O       11.47250000      16.42885000      15.32930000      -0.00605331      -0.00652764       0.02158100
H       10.16620000      16.09447000      16.64214000       0.00201932       0.01646200      -0.00556397
H       11.37650000      14.80669000      14.52042000       0.00426882      -0.00704281      -0.01850560
O       22.15240000      18.70570000      11.70660000       0.08635680      -0.14954100      -0.11399400
H       21.23800000      19.94640000      12.15450000      -0.09976050       0.12934700       0.04825110
H       21.79430000      18.30270000       9.77995000       0.01658640       0.01028920       0.06483640
O       10.58600000      21.47910000      14.36340000      -0.01448270      -0.05131750       0.03291060
H        9.47684000      21.68670000      16.05092000       0.02371900      -0.01288920      -0.04928510
H       10.92250000      19.49290000      14.16818000      -0.01216750       0.05965170       0.01678850
O       23.15860000      22.27832000       6.11302000       0.00490778      -0.01068080      -0.00214411
H       21.74380000      22.81782000       7.24702000       0.00998089      -0.02867610      -0.02581550
H       23.15390000      20.57022000       5.23012000      -0.01559060       0.03671910       0.02292860
O       16.79916000       8.25240000       3.17377000       0.02292840      -0.02769310       0.02876230
H       16.34512000       9.44214000       1.99210000      -0.01169670       0.04185120      -0.04019030
H       15.42972000       7.08126000       3.17388000      -0.01226760      -0.01531640       0.00661929
O       14.82170000       0.80028000      13.18010000      -0.03835110       0.04009100       0.01135190
H       14.47780000       2.70888000      13.12850000       0.01323080      -0.05569360       0.00246497
H       13.13800000       0.05838000      13.63780000       0.03030810       0.00890219      -0.00698364
O        0.48631800      16.40460000      15.58462000      -0.04993740      -0.00386590      -0.02552070
H       23.87773100      15.01040000      16.70152000       0.01009420       0.03104210      -0.03901440
H       23.67202000      17.01800000      13.92822000       0.02398980      -0.02114280       0.05830630
O       17.81092000      17.63262000       1.71760000      -0.00665619      -0.02425950       0.07325940
H       19.50482000      18.22882000       2.18990000      -0.01561180      -0.00503882      -0.00768377
H       17.11962000      16.62772000       3.31297000       0.01830290       0.03620950      -0.05871360
O       22.01360000      13.11720000      18.40626000      -0.03271850      -0.03474930      -0.02286110
H       23.09320000      11.96630000      19.35116000      -0.00409670       0.00078511       0.00532532
H       20.74590000      11.88030000      17.49796000       0.02753200       0.03639280       0.01915190
O        8.28518000      19.20392000       2.95177000       0.07162790       0.05373810       0.03788950
H        6.87748000      18.12172000       3.20399000      -0.00936789      -0.00935239       0.02764330
H        9.43838000      19.96892000       4.54353000      -0.06366060      -0.05273120      -0.05781470
O       10.67140000      19.07236000       7.85092000      -0.06253120       0.04598360      -0.01900510
H       12.03670000      18.61286000       8.79592000       0.05338330      -0.01728090       0.02845050
H       10.19200000      20.86806000       8.49142000       0.01247610      -0.02363130      -0.00896058
O        2.62078000      11.23112000       2.22843000      -0.01313020      -0.00591346      -0.00886495
H        1.58513000      10.85342000       3.70281000       0.00173368       0.00258600       0.00310932
H        1.46813000      10.97702000       0.79892600       0.01378860       0.00238797       0.00365789
O       15.83982000      10.07688000      12.06860000      -0.03501270       0.07239600       0.02941120
H       16.25648000       8.72008000      11.16950000       0.02876140      -0.11560500      -0.02784890
H       16.06442000      11.10978000      10.63480000      -0.00256585       0.04750770      -0.00782295
O       19.46523000       4.53380000      15.99970000       0.01710840      -0.01612450      -0.05354960
H       20.98205000       4.23962000      17.01280000      -0.01005930       0.00310003      -0.00246076
H       19.86088000       3.90549000      14.12610000      -0.01944990       0.01409440       0.06046830
O        0.24892000       9.92708000      21.57736000       0.02128450       0.05899080       0.00884584
H       23.90170000       8.31378000      21.62276000      -0.02232250      -0.05237400      -0.00571463
H        1.84402000       9.84368000      20.70713000       0.00934275      -0.00586734      -0.00262562
O       22.70360000       4.96910000      20.10152000      -0.15796000       0.02896530       0.03144830
H       21.77920000       4.70294000      21.82002000       0.01996940       0.00076202      -0.04698270
H        0.01102000       4.61282000      20.33372000       0.13362600      -0.03909960       0.01746660
O       15.62280000       1.86262000      23.47542000      -0.02991820      -0.08757400       0.00048018
H       17.36030000       1.92302000      23.82112000       0.03633120       0.02267170       0.00871095
H       15.53340000      24.14240000      23.68412000      -0.01660320       0.05927720      -0.01402800
O        8.80628000      11.91040000      21.80900000       0.04658640      -0.02938960       0.01050360
H       10.64908000      11.66050000      21.06890000      -0.06512130       0.00073735       0.03408940
H        8.55508000      10.93810000      23.53380000       0.02106730       0.03072150      -0.04248730
