192
Lattice="24.30184 0.0 0.0 0.0 24.30184 0.0 0.0 0.0 24.30184" Properties=species:S:1:pos:R:3:force:R:3 TotEnergy=-1103.78737 cutoff=-1.0 nneightol=1.2 pbc="T T T"
O        6.11416000      10.04970000       3.24468000      -0.00045342      -0.00082921       0.00634345
H        5.77853000      11.75280000       2.69765000       0.00263756      -0.00293859       0.00086026
H        5.98276000      10.10110000       5.09189000       0.00098785       0.00337632      -0.00712261
O       23.10990000       1.68271000      14.46130000       0.00226628      -0.00300696      -0.00874077
H       22.05310000       0.75963300      15.62580000       0.00366536      -0.00000981       0.00490962
H       21.92990000       2.62106000      13.43490000      -0.00215233       0.00297389       0.00184833
O       11.61040000      14.47650000       7.34366000       0.00588570       0.00103716      -0.00419530
H       11.38120000      14.08360000       5.57532000       0.00075857       0.00141630       0.00710927
H       13.14090000      13.62050000       7.82439000      -0.00442098      -0.00133998      -0.00311799
O       16.69230000      20.50260000      10.58340000       0.00302897       0.00054073      -0.00047877
H       18.09340000      19.84460000       9.57427000      -0.00193385       0.00200724       0.00345544
H       17.41340000      20.59490000      12.26610000      -0.00203142      -0.00207524       0.00138319
O        7.66553000      15.28560000      23.08790000       0.00194521      -0.00051542      -0.00135458
H        7.62318000      15.22640000      21.27780000      -0.00055761       0.00060968      -0.00014416
H        9.43071000      15.41180000      23.48110000       0.00129339      -0.00012501       0.00169611
O       15.02480000      11.91280000      14.52710000      -0.00804426       0.00196079       0.00380806
H       13.97200000      13.02490000      13.51000000       0.00557149      -0.00263174       0.00343864
H       14.22780000      12.04010000      16.18680000       0.00527255       0.00076307      -0.00374705
O        1.69002000       7.54229000      12.72810000       0.02882510      -0.07027720      -0.11583400
H        1.38836000       8.73059000      14.03880000       0.01024400       0.00773752       0.04436370
H        2.46252000       5.94078000      12.45180000       0.00460534       0.00281176       0.02315340
O        0.19146000      18.46830000      13.58800000      -0.00275446       0.00039638      -0.00157899
H        1.33151000      17.38440000      14.50250000      -0.00066885      -0.00411973       0.00279163
H        1.26167000      19.70040000      12.80720000       0.00340361       0.00129425      -0.00094436
O       13.93160000      15.57770000       0.85710500       0.01630380      -0.00258989       0.00457957
H       15.65810000      16.11610000       1.28195000      -0.02043900      -0.00778290      -0.00550549
H       13.77740000      13.88150000       1.50714000       0.00200675       0.00701681      -0.00071544
O       23.18410000      23.96610000       8.34890000      -0.00284001       0.00059375       0.00297214
H       23.68840000      23.88810600      10.09330000      -0.00385419       0.00241357       0.00297851
H        0.34058700       0.31276000       7.49908000       0.00541605      -0.00372260      -0.00495070
O       19.33950000      14.60720000      12.10740000      -0.03050050       0.01085610       0.00286587
H       18.86820000      15.85430000      10.83650000       0.00450860      -0.01032540       0.01095530
H       17.77990000      14.41470000      13.15390000       0.02750970      -0.00255500      -0.01468580
O        9.30041000      23.67930000       3.83357000       0.00218892       0.00087176      -0.00797155
H       10.76430000      22.60250000       4.08746000      -0.00372927       0.00572188       0.00311057
H        9.75295000       0.54070100       2.50425000       0.00043673       0.00133034       0.00639712
O        2.14541000      17.63240000       5.03771000       0.00163993       0.00278898      -0.00582910
H        2.01827000      15.92650000       5.64147000       0.00054285      -0.00108589      -0.00171718
H        3.43571000      18.46940000       5.99185000      -0.00466912       0.00078956       0.00461932
O       24.26300000      10.30250000      15.12830000      -0.03586300       0.04494580       0.03275410
H       22.79760000       9.20741000      15.27230000      -0.00357987       0.00752719       0.00975919
H       23.87800000      11.32280000      13.67890000      -0.00415616       0.00700943      -0.00372217
O        4.42890000      19.30040000      20.05200000      -0.00206113       0.00173851       0.00119531
H        3.29258000      18.51630000      18.88610000      -0.00209139      -0.00307871      -0.00257991
H        5.31028000      20.57690000      19.05550000       0.00018581      -0.00025050       0.00060945
O        5.82877000      10.02060000       8.57089000       0.01243590      -0.00782317      -0.00195695
H        7.32730000       8.94792000       8.86997000      -0.00923020       0.00847841      -0.00130185
H        4.46879000       9.29149000       9.53284000      -0.00284879       0.00107971       0.00619306
O       21.12180000       5.01923000      21.30750000       0.02300010      -0.02981680       0.03402210
H       22.64190000       5.08323000      20.28550000       0.00908775       0.00142023      -0.00487817
H       20.00770000       5.90528000      20.32590000      -0.03752500       0.02810330      -0.02740630
O       14.31840000      23.90380000      21.90120000      -0.00177613      -0.00445829       0.00189194
H       14.91860000      22.40960000      22.77400000      -0.00085576       0.00718669      -0.00307249
H       12.83930000      23.37450000      20.97060000       0.00305171      -0.00268932       0.00279375
O       21.45340000       6.89256000       7.72575000       0.00418244      -0.00113548       0.00259746
H       22.05280000       8.05079000       8.99631000       0.00014390       0.00345507      -0.00061446
H       20.15670000       7.75522000       6.80173000       0.00276934       0.00104998       0.00101880
O       12.02350000       4.06092000       0.99485100       0.01476620      -0.01141690       0.00871904
H       13.26910000       3.86833000       2.34601000      -0.01035310       0.01277080       0.00967644
H       12.76630000       2.82333000      24.20060000      -0.00583713      -0.00183212      -0.01976900
O        4.69152000       9.25748000      18.71610000       0.00411765      -0.00590698      -0.00093193
H        5.45148000       7.74560000      19.38240000       0.00379725      -0.00011225       0.00546415
H        6.03127000       9.92191000      17.67720000      -0.00158597       0.00223314      -0.00088143
O       20.19130000      15.77500000      22.60820000       0.00037503      -0.00430246       0.00235773
H       21.57530000      14.64540000      22.20190000      -0.00457071       0.00485902      -0.00051661
H       20.85590000      17.11940000      23.66160000       0.00663082      -0.00026320      -0.00010057
O       19.23580000      19.24520000      15.51150000      -0.00531152       0.00371666      -0.00085859
H       20.06690000      20.45910000      16.58630000       0.00011090       0.00289676       0.00187003
H       20.59360000      18.25430000      14.81540000       0.00119455      -0.00187364      -0.00137389
O       21.85190000       7.02197000       1.91101000       0.00015186       0.00102180       0.00406561
H       21.50810000       6.41181000       0.21144300      -0.00128822       0.00257742      -0.00008097
H       21.66430000       5.58490000       3.00918000      -0.00213170      -0.00071911       0.00031231
O       12.59730000      16.20980000      12.77900000       0.00358793       0.00606870      -0.00286699
H       11.29010000      16.29740000      11.53430000      -0.00248173       0.00052265      -0.00311027
H       13.69130000      17.62250000      12.40800000      -0.00130232      -0.00219062       0.00173539
O        7.88942000      16.35950000       3.81848000      -0.01412670       0.00394090      -0.00264506
H        6.30941000      16.66840000       2.90418000       0.01640470      -0.00241649       0.00873679
H        7.53442000      16.64650000       5.57554000      -0.00047184      -0.00062248      -0.00238889
O       12.46890000      13.27570000      19.24200000       0.00451821       0.01337190      -0.00530470
H       12.57310000      12.34010000      20.76770000      -0.00634220      -0.01188740       0.00574832
H       13.57190000      14.74430000      19.54670000      -0.00124960      -0.00462855      -0.00611397
O        6.59484000       4.40752000      22.91990000       0.05135070       0.01846600      -0.02377810
H        5.00807000       3.91740000      23.37990000      -0.05585870      -0.01877770       0.01738330
H        7.52514000       4.69102000       0.12896000       0.00454926       0.00115490       0.00343608
O        1.74877000       2.45960000       0.58532100       0.00557395      -0.00122121      -0.00352402
H        1.69227000       3.03387000       2.30286000      -0.00008254       0.00184892       0.00678770
H        0.37966500       3.29435000      24.06930000      -0.00584148       0.00438144      -0.00408605
O       15.60770000       2.62153000      17.52890000       0.00759467      -0.01312810       0.00799291
H       15.41490000       2.02665000      15.85240000      -0.00660476       0.00391226      -0.01818410
H       15.60820000       1.03109000      18.41720000      -0.00172550       0.00715348       0.01072230
O        0.68305100       5.47909000      18.31450000       0.00704884       0.00029171      -0.00147075
H        1.88918000       6.83555000      18.18560000      -0.00140167       0.00249329      -0.00197176
H        0.71884200       4.57842000      16.73780000      -0.00236128      -0.00418547      -0.00212984
O        4.45167000      24.18040000       6.61263000       0.00087882       0.00772590       0.00179875
H        5.28847000      24.03530000       5.00021000       0.00196690      -0.00350004       0.00439393
H        4.37907000       1.69268000       6.87232000       0.00023674      -0.00669168      -0.00279221
O        9.26331000      21.37180000      21.97790000       0.00379797       0.00181680       0.00205788
H        8.53068000      19.89730000      22.74550000      -0.00166291      -0.00112022      -0.00205285
H        9.86531000      22.36890000      23.36434900      -0.00467248      -0.00265135       0.00124806
O        1.02074000      12.22880000       4.21684000      -0.00185498       0.00105478       0.00041237
H       23.77894400      12.59880000       3.32154000      -0.00350722       0.00093726       0.00170905
H        1.67330000      10.76110000       3.38526000       0.00148510      -0.00240465      -0.00242569
O       22.29110000      19.64040000       1.29005000       0.00170469       0.00855962      -0.00507233
H       23.64390000      19.10480000       2.38299000      -0.00107801      -0.00204326       0.00227154
H       23.12680000      20.81480000       0.07960300      -0.00249961      -0.00991723       0.00820831
O       14.84580000      10.34840000       4.78898000      -0.00376072       0.00309664       0.00123844
H       14.18660000      10.17700000       3.09841000      -0.00131431      -0.00255505      -0.00184464
H       16.16690000      11.58390000       4.64092000       0.00697441      -0.00088911      -0.00221967
O       21.03980000      18.82100000       8.04826000      -0.00421492      -0.00043721       0.00126214
H       21.29110000      20.41390000       7.21564000       0.00429049       0.00122823      -0.00279909
H       22.46520000      18.74330000       9.16718000       0.00097365      -0.00252778       0.00346347
O       10.27710000       7.05152000       9.02274000      -0.01752860      -0.01436300      -0.00975032
H        9.64588000       5.57510000       8.08567000       0.01067780       0.01490040       0.01324500
H       10.08440000       6.52789000      10.75720000       0.00668909      -0.00049345       0.00125027
O        8.02798000      13.59450000      15.54350000      -0.00198232      -0.00674538       0.00136454
H        7.89821000      14.05640000      13.78860000       0.00126034       0.00200970       0.00141739
H        9.78953000      13.40190000      15.94190000      -0.00105495       0.00350565       0.00309972
O       21.10800000      23.47350000      18.74230000       0.00287792      -0.00246600       0.00218304
H       20.01390000       0.15471600      19.79450000      -0.00215556       0.00397522      -0.00010980
H       22.68010000      23.42520000      19.68520000      -0.00057256      -0.00447319       0.00009525
O       13.16940000      20.74420000       6.01251000      -0.02137910      -0.02602720       0.02116830
H       13.99920000      20.99710000       7.62847000       0.00173583       0.00248887      -0.00450000
H       11.97790000      19.34760000       6.45031000       0.02233890       0.01767840      -0.01466400
O       16.08480000      16.91230000      19.56030000      -0.04201030       0.00130765       0.00657455
H       16.67020000      17.61370000      18.04380000       0.01692830       0.00680563      -0.02239650
H       17.49810000      16.54740000      20.57650000       0.02790020      -0.00673501       0.01373160
O        0.76788900      12.00370000      22.41410000       0.00050142      -0.00190439       0.00377548
H        1.96588000      13.07570000      23.23450000       0.00255737       0.00306044       0.00036539
H        1.79898000      10.96070000      21.33290000      -0.00277238       0.00276684      -0.00350100
O       10.43250000       7.63413000      16.04330000      -0.02107080      -0.01543030      -0.01032170
H       12.16060000       7.32784000      17.39900000      -0.03618840       0.02992900      -0.03596850
H        9.83756000       9.03320000      15.03250000       0.01842120      -0.00309714       0.01670950
O       11.67550000       9.80402000       0.12006000      -0.00049998      -0.00647630       0.01025060
H       11.51920000       7.99078000       0.42046000       0.00301817       0.00602083      -0.00760324
H       10.13680000      10.47580000       0.81924600      -0.00328574      -0.00051901      -0.00230705
O       19.12940000       8.27268000      15.96670000      -0.01609350       0.00604338      -0.01751140
H       18.13070000       9.39042000      14.84940000       0.01165850      -0.00633679       0.01572140
H       19.29480000       6.76884000      14.93040000       0.00221086       0.00127468       0.00055564
O       13.99490000       7.15880000      18.61040000      -0.00309766       0.07116600       0.02788960
H       15.36750000       7.79748000      17.65570000       0.01847810       0.00683327      -0.01145440
H       14.29780000       5.49461000      18.82040000       0.01842810      -0.08411670       0.00631633
O       24.22470000      12.43930000       9.55138000      -0.00202046       0.00155573      -0.00602581
H        0.41026000      11.95700000       7.84893000      -0.00146482       0.00299920       0.00287506
H       22.99490000      13.76140000       9.30970000       0.00176648      -0.00505418       0.00384798
O        9.58392000       1.68107000      10.23330000      -0.00153266      -0.00466006      -0.00736045
H       11.14670000       1.32312000      11.09230000       0.00355896       0.00032459       0.00180478
H        9.67695000       0.77414200       8.65671000      -0.00282526       0.00021355       0.00125876
O       17.17670000      11.09320000      22.57400000      -0.00077803      -0.00293138       0.00388270
H       16.15160000       9.62743000      22.28650000      -0.00024042      -0.00015737      -0.00033378
H       15.98640000      12.45180000      22.69250000       0.00307139       0.00223725      -0.00289803
O       19.85050000       2.46412000       4.82615000       0.00411417      -0.00438355      -0.00571023
H       19.70850000       1.28055000       3.42856000      -0.00534834       0.00108452       0.00975830
H       20.51400000       1.47810000       6.22288000       0.00049135       0.00557544      -0.00559602
O        6.22825000       2.94498000      14.18510000      -0.00864045      -0.00207546      -0.00395521
H        7.14633000       2.27054000      12.77290000       0.00325894      -0.00145744      -0.00575856
H        6.92968000       4.59506000      14.40030000       0.00631902       0.00534638       0.01083950
O        4.60582000      20.09740000      10.72690000      -0.00260355       0.00184189       0.00174423
H        5.36992000      21.40110000       9.72863000       0.00002163       0.00447428      -0.00271579
H        5.92724000      19.07260000      11.40780000       0.00442254      -0.00226263      -0.00347399
O       15.03790000       2.03920000      10.97640000      -0.00034514      -0.00740112      -0.00026727
H       14.52910000       2.77421000       9.39513000       0.00248646       0.00430305      -0.00629019
H       16.07910000       0.60276000      10.52180000      -0.00568576       0.00085822       0.00246900
O        2.98317000       4.82986000       5.23955000       0.00109293       0.00120546       0.00283541
H        3.99259000       5.92714000       4.20239000       0.00002310       0.00413466       0.00062231
H        1.94660000       5.92725000       6.25250000      -0.00312990      -0.00074542      -0.00275572
O       19.40290000       4.58736000      12.02940000      -0.01209020      -0.00229446      -0.00166463
H       19.93210000       4.73811000      10.27370000      -0.00251738       0.00601594       0.00650064
H       17.58830000       4.18835000      12.00100000       0.01649370      -0.00255804      -0.00469585
O       14.73680000       4.56258000       5.47085000       0.00598294       0.02864250       0.00147262
H       16.54610000       4.85002000       5.11680000      -0.01959830      -0.00861633       0.00550477
H       14.00140000       6.27892000       5.70151000       0.01558480      -0.02394870      -0.00070378
O       12.68230000      22.03820000      15.78970000       0.00305793      -0.00285638       0.00461897
H       13.78820000      21.10790000      16.89040000      -0.00101982      -0.00123407      -0.00311047
H       11.02370000      21.64390000      16.42520000      -0.00299955       0.00389297      -0.00030164
O       19.78780000      12.65170000       3.09843000       0.00064300      -0.00301121      -0.00350809
H       19.53560000      12.66050000       1.27998000      -0.00102359       0.00334512       0.00324188
H       20.07780000      10.88380000       3.39700000       0.00255723      -0.00433571      -0.00225639
O        7.38758000      15.32640000      10.18850000       0.02856190      -0.02696450      -0.01250630
H        5.72550000      15.02680000       9.66712000      -0.03459830       0.00100526       0.00116424
H        8.15220000      13.83100000       9.33498000       0.00184256       0.02457800       0.01368300
O        6.52380000      22.48420000      16.50380000       0.00292238       0.01270540      -0.00351290
H        6.30804000      21.52270000      14.99040000      -0.00376059       0.00219630      -0.00318105
H        6.26049000      24.26980000      16.00060000       0.00260883      -0.01406580       0.00642275
O       17.68660000      22.23390000       2.44630000       0.00317570      -0.00986187       0.00253727
H       18.88000000      20.82400000       2.57846000      -0.00577784       0.01213450      -0.00356432
H       16.33120000      21.92800000       3.62529000       0.00349629      -0.00323776      -0.00267110
O        0.95181900      22.30520000      22.40720000       0.00205569       0.00724105       0.00118823
H        2.22227000      21.17790000      21.68420000       0.00223751      -0.00025999      -0.00064857
H        1.85403000      23.67670000      23.24830000      -0.00756248      -0.00621012      -0.00319732
O        3.01962000      14.87080000      16.74920000       0.00301696      -0.00223989      -0.00647872
H        4.64206000      14.78070000      17.54930000       0.00356714       0.00507005       0.00002877
H        3.11551000      13.38080000      15.71130000      -0.00907085       0.00111677       0.00301083
