192
Lattice="24.28959 0.0 0.0 0.0 24.28959 0.0 0.0 0.0 24.28959" Properties=species:S:1:pos:R:3:force:R:3 TotEnergy=-1102.73625 cutoff=-1.0 nneightol=1.2 pbc="T T T"
O        4.86837000       2.40812000      13.24760000      -0.08481700      -0.01707640      -0.05295810
H        3.21092000       2.93603000      12.11550000       0.04413640      -0.03496310       0.03798760
H        5.32524000       4.07440000      13.17840000       0.03636860       0.05532280       0.01225760
O       19.98290000      23.85340000      20.47320000      -0.00347883       0.00737000      -0.00637815
H       18.66560000      23.33130000      21.64990000       0.00424883      -0.00525993       0.00276187
H       21.21100000      22.52850000      20.40160000       0.00565327       0.00083192       0.00235956
O        0.03724700      22.62020000      10.19270000      -0.10156200      -0.00000480      -0.04588030
H       23.52421900      21.72050000       8.59405000       0.02376960       0.03832650       0.05125150
H        1.56862000      21.75440000      10.32870000       0.03248300      -0.01572670      -0.00789977
O       19.58790000      16.56090000      23.93130100       0.06523250      -0.10379100      -0.03955710
H       18.79170000      17.91010000       0.13299700      -0.06408640       0.11971000       0.03235040
H       19.40050000      15.46430000       1.03155000      -0.00038824      -0.02016650       0.01355510
O        7.69756000       9.55171000      22.60720000       0.08296060       0.05179170      -0.13416200
H        7.21594000       9.07468000      24.05910000      -0.04489120      -0.05153520       0.16024300
H        6.25111000       9.81209000      21.65520000      -0.03144360      -0.00127480      -0.01968260
O       13.59330000      14.63680000      10.62950000      -0.02157990       0.03595760       0.01967510
H       14.89930000      13.46360000      10.91900000       0.01865180      -0.01882260       0.00497936
H       13.74310000      15.86020000      12.03230000      -0.00340554      -0.01504610      -0.02032500
O        1.95905000      12.59500000       9.74708000      -0.07441260       0.02407170      -0.06200770
H        2.12457000      14.45740000       9.19675000       0.00080901      -0.05265270       0.01016720
H        0.32932500      11.99590000       8.59810000       0.07136670       0.02399010       0.04931730
O        8.00479000      20.85760000       2.87621000       0.01060260       0.00367026       0.02561510
H        9.47763000      19.91510000       3.41038000      -0.00686301      -0.00280515      -0.01028070
H        7.51386000      21.66520000       4.52245000      -0.00464944      -0.00652238      -0.02226150
O       13.38040000       0.61862200      15.14710000       0.03070090      -0.06683510       0.07688150
H       14.18210000       0.26042600      16.97040000      -0.03716870       0.01366400      -0.06542840
H       13.66960000       2.32720000      15.04170000       0.00431060       0.04602540      -0.00714372
O        9.14555000      21.17260000      18.70360000      -0.02550300      -0.03654860       0.02052160
H        8.63704000      19.67130000      19.96940000       0.00033452       0.05300500      -0.04797790
H        7.87579000      22.53890000      18.55940000       0.01920970      -0.02153950       0.01793760
O        3.79656000      20.45500000       9.65082000       0.02634620      -0.09095350      -0.01270280
H        3.90612000      18.85590000       8.39983000       0.00401634       0.04476990       0.01889290
H        4.04702000      19.48040000      11.19480000       0.01033910       0.00982321      -0.00833370
O        5.00131000      22.37540000      23.01800000      -0.04425020      -0.14274500       0.00023147
H        5.50187000      23.90820000      22.94800000       0.03364120       0.16201800      -0.01554270
H        6.53447000      21.65730000      23.58470000       0.01261780      -0.01672470       0.01870290
O       16.18140000      11.80570000      18.40650000       0.06210410       0.04782120       0.03482820
H       14.88280000      12.10540000      19.86150000       0.00996074       0.00154035      -0.03219740
H       17.84110000      12.87620000      18.99570000      -0.06620960      -0.03961110      -0.01175890
O       22.43440000       7.63549000       5.13836000       0.02407390       0.00034569      -0.05576910
H       21.49720000       7.95300000       3.48107000       0.01347910       0.00241222       0.04354310
H       24.24740000       7.84530000       4.56027000      -0.04507820       0.00037208       0.01728260
O        0.29351000       3.57251000      10.22920000      -0.04997590       0.02866410      -0.01420150
H        0.13221000       1.77472000      10.05910000      -0.00082800      -0.01086910      -0.00101225
H       22.55420000       4.26865000       9.93546000       0.06802490      -0.03155010       0.02645910
O        0.33301000      18.09950000       0.76421600      -0.01143720       0.04758930       0.00816357
H       23.30860000      17.08450000       0.07971300      -0.01233910      -0.00131175      -0.00375540
H       23.75330000      19.77870000       1.13154000       0.02180220      -0.04686020      -0.00480390
O       13.94110000      19.45100000      14.67820000       0.03818990      -0.01000140      -0.03986200
H       12.56560000      19.08830000      15.63240000      -0.05306600      -0.02733550       0.04024640
H       14.14110000      21.16140000      15.04850000       0.00838025       0.03604950      -0.00044574
O        3.02303000      21.73870000      15.32090000       0.07939450      -0.12476400       0.10767800
H        2.31123000      22.73020000      14.26260000      -0.06110220       0.10022800      -0.10201600
H        4.11884000      20.34400000      14.54460000      -0.02095970       0.02879830       0.02100430
O       16.58650000      23.38430000       4.49369000      -0.04897710      -0.06295830       0.00579796
H       17.59990000       0.48181000       4.58325000       0.03334200       0.05579010      -0.00239014
H       14.89440000      23.68940000       5.08007000       0.00882467       0.01027420       0.00340277
O       22.43400000       2.51472000      16.81170000       0.01619170       0.01528270       0.01043330
H       23.66430000       2.34484000      18.17060000      -0.01454100      -0.00468067      -0.00764148
H       21.86340000       4.23587000      16.94720000       0.00040538      -0.00307191       0.00028034
O        4.34315000       7.54117000       7.74759000      -0.00851371      -0.00579704      -0.01483030
H        3.81011000       7.92622000       9.43205000       0.01105780       0.00454980       0.00734965
H        3.24956000       6.14809000       7.41050000      -0.00070524      -0.01436280      -0.00177161
O       23.77059000       9.23062000      22.86160000      -0.03198360      -0.06109930       0.05665630
H        0.57153500       8.87555000       0.05491000      -0.01051890       0.01195080      -0.01819470
H        0.31140300      10.40300000      21.94680000       0.03234000       0.04440080      -0.03889780
O       12.10740000      11.69970000      21.37000000       0.00967484       0.03590410       0.04350050
H       10.68490000      10.52950000      21.38750000      -0.00161281       0.00533340       0.00887772
H       11.93880000      12.81340000      22.97510000      -0.00184707      -0.03164000      -0.04671990
O        7.74060000       8.41961000       3.47127000      -0.05483400       0.09534520       0.01168180
H        6.81689000       8.24679000       5.03848000       0.00458135       0.01018150       0.00501159
H        8.37904000       6.89607000       3.38658000       0.04941370      -0.11032000      -0.01648770
O       10.44870000      15.40520000      16.89850000      -0.08051130       0.05771360      -0.16531500
H       10.81300000      13.97980000      15.93220000       0.00566296      -0.02158950      -0.02123400
H       11.05510000      15.04110000      18.31320000       0.07301890      -0.03584250       0.18289200
O       13.22500000      19.46070000      21.26430000       0.06421980      -0.03823780       0.05187830
H       17.74870000      14.00020000      16.36070000      -0.02162690       0.00153900       0.02132120
H       11.88940000      20.04240000      20.38180000      -0.04641620       0.03570650      -0.04144250
O       11.08150000      10.21230000       6.74980000      -0.00020228      -0.03099270      -0.01843860
H       11.50270000      11.58680000       7.70909000       0.01687790       0.03422170       0.04099830
H       10.64780000      11.08370000       5.24807000      -0.00914871      -0.00594385      -0.01834140
O        6.71107000      23.33590000       7.14331000       0.02816330       0.02387070      -0.01396630
H        8.36755000      23.85940000       7.83037000      -0.02372150      -0.00752343       0.00229737
H        5.64778000      22.69720000       8.47153000       0.00490691      -0.00329585       0.00395042
O        3.54534000       3.12229000      21.65890000      -0.01458490      -0.02995020       0.00185448
H        1.85077000       2.27908000      21.54360000       0.02675040       0.02485840       0.00657181
H        3.37956000       4.83930000      21.14910000      -0.00524054       0.01061010      -0.00394891
O       22.98420000       3.50384000      22.69130000       0.00064529       0.06228730      -0.02628200
H       22.96150000       5.40206000      22.04370000      -0.00704716      -0.06740150       0.02335320
H       21.43910000       2.59119000      22.24990000       0.00540997       0.00712534      -0.00537583
O       19.30460000      10.85200000       1.97263000      -0.04170500       0.01497720      -0.00980456
H       17.56370000      10.85480000       1.19270000       0.03588040      -0.01008080       0.02217150
H       20.29810000      11.03680000       0.49052100       0.01572980      -0.00340210      -0.00845241
O       16.60320000       7.65675000      23.40670000      -0.03421210       0.00474025      -0.04899790
H       15.07890000       7.96262000      22.29800000       0.02416400      -0.00420201       0.03168720
H       17.71980000       7.11602000      22.05750000       0.00099696      -0.00225320       0.01898860
O       18.19740000      19.35010000      11.86560000       0.09602310      -0.04177360      -0.04041590
H       19.14260000      20.77800000      12.30970000       0.00756461       0.03709090       0.00700736
H       16.65370000      19.60650000      12.39370000      -0.11180800       0.01717690       0.04442530
O       18.78600000      16.57940000       8.07204000      -0.00457884       0.06353600      -0.04932790
H       18.98740000      15.17840000       9.01286000       0.00551203      -0.06250880       0.03720610
H       18.11590000      17.86830000       9.24188000       0.01146760      -0.00869970      -0.00147146
O       17.85950000      17.12550000      19.25210000       0.05381700      -0.02039520      -0.02313170
H       19.26100000      16.48660000      20.46850000      -0.03474600       0.02543570      -0.02695740
H       18.75400000      17.80600000      17.70590000      -0.01671380      -0.00830329       0.03638460
O       20.04320000       2.07315000       2.31089000       0.09672180       0.05711420       0.05432990
H       21.96760000       1.48744000       2.09978000      -0.07407320       0.01634440       0.00264670
H       20.54310000       3.81445000       3.37462000      -0.02530150      -0.07084800      -0.04680210
O        4.47084000       8.93655000      12.84850000       0.05294460       0.00080897       0.01509010
H        3.48257000       9.98300000      11.87840000      -0.04339530       0.03676800      -0.02265250
H        6.12094000       9.81884000      12.50050000      -0.01952700      -0.03454710       0.01418260
O       14.54390000       6.79128000       9.45288000       0.03050220      -0.11595800       0.11251600
H       13.39660000       5.22729000       9.64012000       0.03804730       0.04155370       0.00485451
H       13.78430000       7.43785000       8.16514000      -0.06411140       0.07471570      -0.11697200
O        5.92896000      17.97020000      14.05550000       0.01448950       0.05474890      -0.00753180
H        7.48610000      18.51280000      14.85090000      -0.00141520       0.00417676       0.00290482
H        5.99190000      16.26770000      14.28710000      -0.00604858      -0.06140560       0.00986373
O        0.48195500      21.81620000      20.30750000       0.00501850      -0.00142382      -0.15830600
H        1.51203000      21.69280000      21.62210000       0.06370040      -0.00602924       0.07898660
H        2.18802000      21.76840000      18.33650000      -0.06637350       0.00452955       0.05986860
O       11.20300000       5.22578000      16.64290000       0.09333370       0.14423800      -0.35848300
H       12.44540000       5.04464000      17.56440000       0.20719000      -0.01760000       0.11494100
H       10.22740000       4.80060000      17.63640000      -0.29620000      -0.12030600       0.24242600
O       11.17260000      23.59800000      10.26230000       0.01446610       0.01605670      -0.07672970
H       11.27800000      21.87580000      10.46500000       0.00861865      -0.04882880      -0.00101926
H       10.64450000      24.08740000      11.79690000      -0.02150000       0.03352250       0.07453850
O        6.35195000       2.94550000       2.70454000       0.04488030      -0.02960930       0.06820540
H        4.89786000       3.03529000       1.81717000      -0.05823330       0.00559967      -0.04573760
H        5.96057000       1.66679000       4.05358000       0.01346640       0.02302370      -0.02263970
O       19.37410000       7.57898000      18.38530000       0.03779970       0.03972060      -0.02788920
H       19.37110000       8.92334000      19.66030000       0.00121028      -0.01431180      -0.01661350
H       20.33980000       8.43188000      16.88630000      -0.02547380      -0.03072650       0.04052120
O       23.12060000      18.16450000      14.91310000      -0.12024100      -0.08875800      -0.00024275
H        0.16231000      19.06110000      14.82650000       0.14117800       0.09449000      -0.00308760
H       22.03100000      19.02940000      13.81110000      -0.02281330      -0.00023026      -0.01227040
O        6.33466000      17.36060000      21.05320000      -0.01292160       0.04809760      -0.02646370
H        5.33128000      19.08420000      21.06760000       0.02562110      -0.06666180       0.02246710
H        6.56493000      16.31050000      22.53510000      -0.01413910       0.01842680       0.00251677
O       20.26150000      23.98430000      13.45950000       0.00663250      -0.00503251       0.02700930
H       20.59380000       0.54051000      15.15040000      -0.00255841      -0.01547380      -0.03200880
H       21.88020000      23.20240000      13.09230000      -0.00358135       0.01538060      -0.00605644
O        0.06381000      16.40300000      19.19230000       0.00684952      -0.03686210      -0.05154430
H       24.18670000      18.06770000      19.76550000       0.00058537       0.03519960       0.01984210
H        0.09701000      16.63110000      17.27660000      -0.00921768      -0.00831475       0.05120670
O       15.17160000      17.85020000       4.51781000       0.03309650      -0.00810632       0.01870950
H       15.21420000      19.67470000       4.41645000       0.00840018      -0.01289260       0.00118516
H       16.73910000      17.28540000       5.53936000      -0.04097440       0.01491060      -0.02040030
O       17.35470000      21.68100000      23.99170000      -0.03916600      -0.04088850      -0.02200130
H       15.94200000      20.61240000      23.11780000       0.02333960       0.03251350       0.01215550
H       16.52540000      22.58870000       1.04041000       0.00354183      -0.00051379       0.00112688
O       11.25600000      16.58360000       1.21240000      -0.13325000      -0.02308790      -0.00653835
H       12.87000000      16.88130000       1.16407000       0.12840300       0.02390290       0.00054885
H       10.60400000      17.70980000      24.20575000       0.00702048      -0.00824590       0.00376296
O       20.64150000       6.17200000       9.97281000      -0.05989970      -0.01535120      -0.00922807
H       21.73390000       6.63725000       8.64030000       0.00434529       0.02393610      -0.02969150
H       18.97600000       5.75532000       9.09245000       0.03604230       0.01157340       0.02418260
O        0.70923200      11.53210000      18.42640000       0.06255510       0.05559570       0.07807570
H       23.68796200      11.50170000      17.36510000      -0.06615760      -0.00151499      -0.04934450
H        0.66459300      13.36020000      19.27970000       0.00213159      -0.03871950      -0.02752110
O        4.21770000       8.00303000      19.30270000      -0.08797420       0.02536170       0.01781910
H        2.56370000       9.27154000      19.09710000       0.06610830      -0.03981160      -0.00484697
H        5.60761000       8.69864000      18.48560000       0.01795820       0.01184560      -0.02567590
O       17.33440000      11.53250000      12.18290000       0.03085640       0.01700870       0.01544440
H       17.59700000       9.74352000      11.96320000       0.00292205       0.00269546       0.00169636
H       18.82380000      12.25700000      13.10200000      -0.02693350      -0.02319530      -0.02158780
O        9.39346000       8.09625000      12.32810000       0.04181180       0.13212200      -0.03377580
H        9.80711000       6.70121000      13.10320000       0.01286040      -0.11598400       0.06020140
H       11.05010000       8.98444000      12.85600000      -0.04874700      -0.01313450      -0.02492080
O        7.46097000       2.15272000      18.37210000       0.04514910      -0.07667620      -0.08455310
H        6.28876000       2.99474000      19.21410000      -0.07424320       0.04705070       0.05912870
H        6.43130000       1.30802000      17.00570000       0.02348010       0.02622220       0.02195950
O       21.75510000      20.63500000       5.10163000       0.00391142      -0.00048327       0.01139210
H       21.71880000      19.15930000       6.16367000      -0.00224858      -0.00568711      -0.00609162
H       20.04170000      21.21870000       5.18204000      -0.00386111       0.00373773      -0.00380106
O       22.99780000       8.89626000      14.30040000      -0.02708570      -0.05347230      -0.04163260
H       23.27880000       7.33913000      13.15200000      -0.01128990       0.04370560       0.03451250
H        0.32651000       9.33774000      14.81670000       0.03752450       0.00412443       0.00736164
O        4.98477000      16.17190000       1.91207000       0.12490100       0.05281610       0.02634480
H        5.39521000      17.92920000       1.18268000       0.00871322      -0.03817200       0.04485410
H        3.58950000      16.15160000       1.06591000      -0.13687100      -0.01979860      -0.06065430
O        4.88404000      16.17460000       7.14202000      -0.06492260       0.04938040       0.01763780
H        4.94074000      15.35780000       5.60930000      -0.00202021      -0.00688240      -0.05532380
H        6.00559000      15.29290000       8.07467000       0.05474660      -0.02752170       0.03955540
O        2.48339000       9.84991000       2.58804000       0.00780079      -0.11265700       0.05554000
H        3.43016000       8.24559000       3.75302000      -0.03765590       0.07523450      -0.05562820
H        3.74699000      11.03010000       2.74357000       0.03600170       0.03782000       0.00107153
O        9.68146000      15.67220000       7.23251000      -0.04459600      -0.00380601       0.01235890
H       10.71320000      15.05530000       8.51002000       0.02691850      -0.00708306       0.02982520
H       10.78450000      16.12330000       5.97287000       0.03045100       0.01548250      -0.04133890
O       16.53290000       2.96014000      19.36490000      -0.00872975      -0.00625637      -0.01604900
H       17.63360000       4.33554000      19.71920000       0.00307392       0.00359912      -0.00341842
H       17.59280000       1.87567000      18.32060000      -0.00215802       0.00447459       0.01541300
