192
Lattice="24.18115 0.0 0.0 0.0 24.18115 0.0 0.0 0.0 24.18115" Properties=species:S:1:pos:R:3:force:R:3 TotEnergy=-1103.50755 cutoff=-1.0 nneightol=1.2 pbc="T T T"
O       20.83020000       2.29251000      17.08840000      -0.04439720      -0.02344790      -0.01022090
H       21.23800000       2.19129000      18.85610000       0.01719910       0.00508917       0.01290010
H       19.24760000       1.25312000      17.13720000       0.02073200       0.01563090      -0.01231150
O       22.61135000      18.94935000      12.49190000       0.02728240      -0.03858520      -0.07225160
H        0.25190000      18.08175000      12.31460000      -0.05373440       0.01999570       0.00253209
H       21.87295000      18.62585000      10.62900000       0.02678580       0.01914310       0.06412990
O        8.61172000       1.23499000      16.53800000       0.00359343       0.13082200      -0.03012960
H        8.85246000      23.85201800      17.00130000       0.00895745      -0.12026700       0.03234350
H        7.01028000       1.53750000      15.77700000      -0.01172440      -0.00201423       0.00242461
O       18.68030000      14.06915000       0.55690600       0.05085080      -0.07270390      -0.11810300
H       18.52469000      15.71702000       0.65747800      -0.01540840       0.11889900       0.00720091
H       18.27357000      13.40355000       2.00056000      -0.03411860      -0.04900240       0.11010600
O        6.43919000       8.38995000      20.79990000      -0.04382240      -0.18126600       0.07059430
H        6.80669000       9.81345000      20.18120000       0.04239960       0.16194000      -0.07590260
H        7.65138000       7.10965000      20.26430000       0.00089655       0.01164850       0.00421682
O       22.97642000      12.74190000       8.07242000       0.00349921       0.06305790       0.06164530
H       23.74078100      11.92050000       6.76428000       0.02807190      -0.04045620      -0.04912440
H        0.22162400      13.83890000       8.75215000      -0.03310830      -0.01757850      -0.00970065
O       13.40445000      23.86170000      11.42130000       0.00498902      -0.03989620      -0.00152431
H       14.54975000      23.85740000       9.83875000      -0.03090430      -0.01827670       0.03868330
H       12.44395000      21.91930000      12.03530000       0.02492840       0.04675810      -0.03556770
O       24.02939300      23.92330000      13.73460000       0.04270180       0.05546670       0.02159750
H       22.92558000      22.69900000      13.27820000      -0.03610550      -0.05772040      -0.02349190
H       22.99993000       0.85515000      14.75900000       0.00211653       0.00036173       0.00539654
O        6.86545000      12.94160000      18.71630000      -0.01838670      -0.04442280      -0.04346450
H        8.57925000      13.32470000      18.52070000       0.03280040       0.01668140       0.00180470
H        6.00935000      13.85810000      19.91340000      -0.01089780       0.03663700       0.03533980
O       10.19420000       0.00105000      23.18000000       0.04194600       0.14833800      -0.11730500
H       11.64200000       0.29845000      21.66820000      -0.04797410      -0.04950880       0.07153420
H        9.89751000      22.83510000      24.08000000       0.00348925      -0.10783200       0.05168160
O       12.51025000       1.81610000       4.32605000      -0.04923820       0.02022740      -0.02378190
H       10.57085000       1.95085000       4.21702000       0.03844870      -0.01291650       0.02091080
H       12.78335000       2.44768000       2.61842000       0.01837240      -0.00293213       0.00349677
O       12.70935000      10.44305000       1.17910000       0.06109600       0.01904800       0.03367900
H       12.49305000       9.49935000      23.95415000      -0.00234157      -0.03955140      -0.05596040
H       11.10655000      10.81615000       1.69900000      -0.05756890       0.01713830       0.02601990
O       15.07670000      18.14250000       5.58995000      -0.04826080       0.00455260       0.00322283
H       15.50190000      16.62270000       6.36185000       0.05085320      -0.03042410       0.01518860
H       13.29970000      17.56470000       5.69985000       0.00591433       0.03586730      -0.02089780
O        2.40615000      15.98330000      11.15185000       0.02411720       0.03709900      -0.03108540
H        4.08705000      16.72800000      10.60935000      -0.03562100      -0.01074660       0.00412583
H        2.82925000      14.66390000      12.29765000       0.00844109      -0.01487420       0.01997520
O       22.60596000       2.22020000      21.72049000      -0.03401200      -0.04325280       0.02903000
H       24.07164800       3.04923000      21.30924000       0.04676760       0.03158340      -0.01717140
H       23.10477000       0.76115600      22.77699000      -0.01131280       0.00824493      -0.00422655
O       21.24760000      19.40860000       7.19025000      -0.00034633       0.00195504       0.01395550
H       21.17830000      20.56940000       5.84685000       0.00674932       0.03068650      -0.01024290
H       20.87000000      17.96140000       6.25815000      -0.00686226      -0.03439440      -0.00690829
O       17.94890000       9.85357000      21.26750000      -0.02540050      -0.21980700      -0.14494100
H       16.34010000       9.77442000      19.94960000       0.04954380      -0.01798700       0.03228170
H       17.74890000      11.25590000      21.87560000      -0.02136720       0.23085900       0.11004000
O        7.99105000      12.20080000       3.11495000      -0.01647710      -0.00060546      -0.00150926
H        7.91045000      12.62970000       4.87785000       0.00996298       0.00278623       0.00455204
H        6.67495000      10.90820000       2.93465000       0.00894933      -0.00064954      -0.00703677
O       16.15190000      23.24580000      16.38205000      -0.02540070       0.01870730      -0.05268360
H       15.20850000      23.66970000      14.72065000       0.01464670      -0.00098474       0.03455850
H       16.94750000      21.70050000      15.88685000       0.01520190      -0.01650850       0.00412086
O        7.54080000       1.58225000       4.77921000      -0.05511990      -0.02752330       0.05238780
H        6.17340000       1.37075000       6.22305000       0.05674740       0.00111115      -0.00562149
H        6.13380000       2.03835000       3.75446000      -0.00886921       0.02113990      -0.04927470
O        7.14225000      18.27130000       9.10645000       0.00847161      -0.02486620       0.06686240
H        7.72815000      16.42320000       9.30105000      -0.00005065       0.03650430      -0.01572740
H        7.59355000      18.91430000      10.90035000      -0.00150999      -0.01346150      -0.05519810
O       15.59614000       7.93012000      13.01810000      -0.00519686       0.01368740      -0.00125232
H       14.40395000       7.03297000      11.99360000      -0.00487156      -0.00860853      -0.00443716
H       17.24261000       7.39200000      12.49320000       0.01097990      -0.00764175       0.00201334
O        4.92776000       0.45629700      22.01658000      -0.10473300      -0.03600680       0.00768369
H        4.43268000      22.91489000      22.88638000      -0.00134553       0.03591480      -0.01832990
H        6.59513000       0.26181200      22.16746000       0.10165800       0.00620345       0.00281387
O       19.47185000       5.57969000      23.95840000      -0.06322980       0.10392900       0.00460825
H       19.51435000       7.28416000      22.97170000      -0.00775895      -0.04747980       0.02611530
H       20.60525000       4.52971000      23.23320000       0.05553530      -0.05454120      -0.03323900
O        1.14458000       9.34630000       4.80545000      -0.00527585       0.00496784      -0.00449555
H       23.78164500       8.45850000       4.25935000       0.01776040       0.00397805       0.00212792
H        2.27543000       9.69190000       3.37105000      -0.01631680      -0.01239700       0.00405444
O        9.06663000      13.48405000       8.49346000       0.01308040       0.01800780      -0.00324226
H        7.54991000      12.51665000       8.84298000       0.01228060      -0.01718410       0.01019480
H       10.74380000      13.06885000       9.25799000      -0.02861640      -0.00542317      -0.00808973
O        8.90255000      20.32820000      17.55130000      -0.01224650      -0.02494460       0.03846570
H        7.20135000      19.69680000      18.05160000       0.01882730       0.01399510      -0.01463110
H        9.92575000      19.68150000      19.02170000      -0.00562672       0.00800647      -0.02036590
O        4.79445000       8.42345000       1.42030000       0.01852400       0.00296186      -0.03344270
H        5.56335000       8.25405000      23.83615000      -0.01554020       0.01082710       0.02720700
H        4.25465000       6.72075000       1.74280000      -0.00455835      -0.01433860       0.00743930
O       14.29440000       8.75345000      17.80950000      -0.04331180      -0.00391031       0.05586560
H       14.82210000       8.70585000      16.06770000      -0.00738573      -0.01976760      -0.01458460
H       12.71550000       7.68985000      18.44480000       0.05170460       0.01936590      -0.03698680
O       22.90562000      22.16010000       1.09965000       0.00655556      -0.04273200      -0.01600940
H       21.40784000      21.15200000       0.54075000       0.02965970       0.01515640       0.01164760
H        0.31619500      21.02740000       0.80505000      -0.04482550       0.03363060       0.00180689
O        4.67147000      15.84050000      23.04975000      -0.01310600      -0.02449010       0.00430420
H        5.52999000      15.08660000       0.29206400       0.00661510       0.00251466       0.00031364
H        3.24443000      14.65840000      22.84522000       0.00054703       0.01552580      -0.00095641
O        3.92795000       3.41395000      15.27430000       0.08832290       0.02112050      -0.06292270
H        2.94636000       2.19482000      14.59850000      -0.04784100      -0.04961300      -0.02804660
H        3.32583000       3.84329000      16.78390000      -0.04350220       0.02351500       0.08114450
O       10.59890000       5.30210000      19.60410000       0.02803520       0.08077420       0.01745340
H        9.69330000       4.02830000      18.94590000      -0.04007460      -0.07183680      -0.04166720
H       11.38670000       4.73700000      21.08920000       0.01616270      -0.01064350       0.02471520
O        5.11832000       0.79540000       9.30295000       0.01042630      -0.06411470      -0.00100934
H        5.51991000       2.21010000      10.24695000       0.01059150       0.04305860       0.02326970
H        6.08069000      23.57595000      10.13355000      -0.01994310       0.02544710      -0.01992950
O       15.42660000       9.61075000       5.89366000      -0.01142090      -0.04068170      -0.06658700
H       14.67670000       9.29565000       4.13287000      -0.00364736       0.02786020       0.03723020
H       16.55350000       8.18465000       5.62815000       0.01451810       0.00156193       0.02277680
O       23.04920000       9.97385000      12.96630000      -0.05013860      -0.02123250      -0.01066530
H        0.30275000      10.86495000      13.33160000       0.05136560       0.02758660       0.01190980
H       22.30490000      10.86235000      11.54430000       0.00376009      -0.00659338       0.00291055
O       12.03055000       4.57955000      10.24320000      -0.00086048       0.01804080      -0.00323140
H       12.13685000       4.05015000       8.51860000       0.00043869       0.00204846      -0.00941444
H       12.55855000       3.08515000      11.12120000      -0.00080509      -0.01945570       0.01080090
O        1.22900000       5.78735000      19.02900000      -0.00931909       0.00732021      -0.01156340
H        0.08220000       7.19019000      18.34880000       0.02628530      -0.02051500       0.02507140
H        2.90330000       6.42984000      19.34680000      -0.00904621       0.01184210       0.00357933
O        4.97785000      10.19575000       9.06455000      -0.02853060      -0.03319550      -0.05163080
H        5.89445000       8.66575000       9.59165000      -0.00589357       0.00472458       0.00289185
H        3.86545000       9.47865000       7.54035000       0.02967440       0.02847000       0.05302030
O       17.78510000      13.66590000       6.76385000       0.04400880       0.12919200       0.05028930
H       19.56950000      13.53020000       6.99255000       0.01596750       0.00320664       0.00975283
H       17.33770000      12.24530000       6.08435000      -0.04799210      -0.12527200      -0.05818590
O        3.25315000      20.57551000      18.08655000       0.01989120       0.06581610       0.02865960
H        3.68145000      22.26292000      19.16455000      -0.01503750      -0.05837820      -0.03610530
H        3.14315000      21.23883000      16.37825000      -0.00545363      -0.00270631       0.00861122
O       20.41905000       2.03822000       8.35325000       0.02402710       0.00569090      -0.01409740
H       20.29615000       2.65749000      10.04025000      -0.00199946       0.00465266       0.00884695
H       18.99325000       1.04338000       7.86975000      -0.01639950      -0.00602769      -0.00078173
O       14.59117000      16.62270000      14.04405000       0.07407520      -0.05768690      -0.03830930
H       16.41558000      17.14430000      14.82835000      -0.04404780      -0.00679992      -0.01864040
H       15.08614000      15.19080000      12.52485000      -0.02848190       0.05637060       0.06082000
O        7.03410000       5.94945000      11.23635000       0.03842460      -0.00538905       0.00304715
H        8.89640000       5.73585000      10.85355000      -0.02569000      -0.00196634      -0.00011611
H        7.02210000       5.58265000      13.02465000      -0.01140880       0.00194983      -0.00334018
O       16.27550000      23.74311000       6.62925000      -0.01533090      -0.00380508      -0.01213010
H       14.78290000       0.26729200       5.64136000       0.01986040      -0.00884642       0.01193410
H       16.45240000      21.98006000       6.14846000      -0.00588545       0.00936584       0.00760358
O       11.91590000      17.86108000      21.16595000      -0.00160764      -0.01976660       0.05325140
H       12.01060000      16.15769000      20.21465000       0.00342683       0.03544480       0.03749890
H       11.84610000      17.81647000      23.33155000      -0.00151942      -0.01675320      -0.08455920
O        3.76886000      12.42215000      14.21070000       0.03531870      -0.05798280      -0.04526120
H        4.77998000      12.54235000      15.75837000       0.00033747      -0.00398022      -0.01051490
H        4.66631000      11.14305000      12.85055000      -0.03409440       0.05074810       0.05675420
O       18.95710000      18.65550000      15.73380000       0.02730170      -0.00644672      -0.02139020
H       20.54770000      18.51170000      14.62250000      -0.03114260       0.00772318      -0.01766300
H       20.08720000      18.44420000      17.13770000      -0.00922114      -0.00165209       0.03887250
O       11.00240000      19.51880000      12.72065000       0.05645990      -0.01718270      -0.02174590
H       12.56820000      18.35700000      13.36325000      -0.02531670       0.01441360      -0.02398170
H       10.47500000      20.07170000      14.28919000      -0.02817780       0.01523910       0.04793930
O        0.96235000       1.09430000       6.06675000      -0.05005440       0.00371235       0.07899130
H       23.22250000       1.31390000       6.81975000       0.05821360      -0.00273622      -0.02972620
H        1.79645000       0.87720000       7.79085000      -0.01037890       0.00311245      -0.04365280
O       20.13912000       6.46945000       4.63961000      -0.02908900       0.03522650      -0.04979400
H       20.48637000       5.11330000       5.70539000      -0.00009656      -0.03366390       0.01515350
H       19.27233000       5.96997000       2.95525000       0.03678370       0.00077290       0.04160290
O       14.59370000      22.83510000      20.94560000       0.00417412       0.00910446      -0.03579710
H       13.81700000      21.20990000      21.20880000      -0.00042540      -0.00298917      -0.00470542
H       15.01020000      22.93750000      18.99050000      -0.00603739      -0.00266378       0.04189260
O       17.97719000      19.13500000       1.10690000      -0.01403570      -0.03247220       0.12907100
H       17.31355000      20.12830000      24.13085000      -0.03732340       0.06340460      -0.09001140
H       16.64795000      19.54840000       2.58580000       0.04962610      -0.03066220      -0.04251310
O       10.99085000      17.26045000       2.35872000       0.02735320       0.13376500      -0.00521577
H        9.34425000      18.01145000       2.59618000       0.00185322       0.02601720       0.00345596
H       10.52085000      15.71165000       2.30265000      -0.02891950      -0.15824900      -0.00768988
O       22.43880000      18.40660000      19.58070000      -0.12289500      -0.07915900       0.05258000
H       22.86080000      16.78180000      20.39730000      -0.00593109       0.01713380      -0.00544047
H       23.85400000      19.03120000      19.08170000       0.13117000       0.06162050      -0.04566440
O        3.37095000      20.64185000       0.05179500       0.02061320      -0.06225530       0.03470130
H        3.80155000      18.73905000      23.75717400      -0.00873435       0.04628630       0.00478815
H        3.94875000      20.68815000       1.86681000      -0.00257588       0.00151248      -0.02986130
O        7.29211000      20.45130000       4.04325000      -0.00540185       0.07371560      -0.00822153
H        7.57982000      19.61670000       5.61585000      -0.00303585       0.00437102       0.01761360
H        7.35982000      22.56000000       4.38815000       0.00567682      -0.07134720      -0.00900669
O        3.34746000       3.23925000       2.22625000       0.00155525      -0.01078580      -0.00553246
H        3.24519000       2.04165000       0.67117400      -0.00271871       0.02861980       0.05216120
H        2.38960000       2.92765000       3.92199000       0.00281131      -0.01680710      -0.04935890
O       14.18445000      12.66075000       9.97551000      -0.01921870       0.08519800       0.00686808
H       14.50635000      11.02105000      10.23810000       0.00938833      -0.08459190       0.01970140
H       15.69543000      13.14845000       9.08214000       0.00412282       0.00865772      -0.01332600
O       20.33818000       5.35779000      12.77850000      -0.04340060      -0.02122150      -0.01341820
H       21.85508000       6.14838000      13.04870000       0.04688640       0.03219470      -0.00223820
H       20.16429000       4.44778000      14.32410000      -0.00642493      -0.01085700       0.01430070
O       23.62350000      13.69675000      22.20780000       0.00672606       0.02469150       0.03571210
H       23.03600000      12.67425000      20.90512000      -0.00751464      -0.02910410      -0.03194270
H       22.34030000      13.53585000      23.52541200       0.00471595       0.00428390      -0.00757149
O       22.38270000       9.73206000      18.48315000      -0.01698540      -0.00124869      -0.02912530
H       20.70530000       9.42747000      19.37085000       0.02287890       0.00882495      -0.02793670
H       22.28280000       9.81087000      16.54355000      -0.01313700       0.00208546       0.04598960
O       14.63820000       3.68375000      23.40915000       0.01191900       0.15646800       0.06026780
H       16.35820000       4.68245000      23.70615000      -0.04216120      -0.04548750      -0.01744190
H       14.77970000       2.15685000      22.81285000       0.02973730      -0.11470400      -0.04463470
O       12.17965000      13.54980000      17.97830000      -0.03369770       0.06220060      -0.00816057
H       12.66205000      14.27350000      16.36610000       0.00135730       0.00917227       0.00306137
H       12.93025000      12.00130000      17.94440000       0.02947720      -0.06527040       0.00576108
