192
TotEnergy=-1103.41436000 cutoff=-1.00000000 nneightol=1.20000000 pbc="T T T" Lattice="24.53128000       0.00000000       0.00000000      -0.00000100      24.53128000       0.00000000      -0.00000100      -0.00000100      24.53128000" Properties=species:S:1:pos:R:3:force:R:3:Z:I:1
O              26.06430000     -1.67546000    -34.22930000     -0.09357080     -0.00700549      0.01565050       8
H              23.97760000     -1.96886000    -34.15400000      0.07377810      0.00546078      0.00680629       1
H              26.73730000     -3.32307000    -34.62530000      0.01156980     -0.00097923     -0.01741270       1
O              48.43910000     47.19700000     -1.96342000      0.04604910     -0.00999338     -0.04262920       8
H              48.51760000     48.88620000     -1.30439000     -0.00579606     -0.00389392      0.00675344       1
H              49.91690000     47.21040000     -3.35779000     -0.03972780      0.00489550      0.04007160       1
O              13.30750000      2.65471000     16.51280000     -0.00076931      0.01462640      0.00534617       8
H              13.90930000      3.24310000     18.24100000     -0.00228973     -0.01763890     -0.02324190       1
H              12.61410000      0.96004200     16.63490000      0.00454307     -0.00042989      0.00985103       1
O              -3.49001000    -11.31180000     -2.80841000      0.00419610      0.03844430      0.07535090       8
H              -3.96358000    -11.37450000     -4.49677000     -0.01556790      0.01099030     -0.03571120       1
H              -3.88852000     -9.53693000     -1.86514000      0.00771457     -0.04085270     -0.03870050       1
O               4.64933000     35.01960000     17.08960000      0.03034580     -0.01518790     -0.05398270       8
H               6.12497000     35.32300000     18.18530000     -0.00522194     -0.01587210     -0.01702670       1
H               5.21726000     34.25890000     15.22000000     -0.00648313      0.02311470      0.05928860       1
O              -5.53866000     10.88260000      7.76392000     -0.00962449     -0.03508680     -0.00769592       8
H              -6.33000000     12.40270000      8.26005000     -0.00776277      0.02112670     -0.00199369       1
H              -6.76201000      9.94903000      6.64661000      0.01624310      0.01242520      0.01183180       1
O              44.76580000     28.72870000     13.79920000      0.02752330      0.10753900      0.05011100       8
H              46.54590000     28.54990000     14.00250000      0.02799560     -0.00753134     -0.00135172       1
H              44.12900000     27.33810000     13.13920000     -0.04978990     -0.09825540     -0.04588530       1
O               2.35892000    -34.65570000      7.01802000      0.02465570     -0.03802280      0.00442395       8
H               3.44721000    -34.38140000      8.43482000      0.01589190     -0.01410950     -0.00002048       1
H               1.35125000    -33.23130000      7.20354000     -0.03563480      0.04177610     -0.00882938       1
O              32.70440000    -33.42590000     18.38460000     -0.01432310     -0.04319980      0.03121040       8
H              31.01400000    -33.78200000     17.74380000     -0.00187856      0.02800100     -0.01565930       1
H              32.59960000    -34.93470000     19.54710000      0.03038280      0.02119610     -0.01087550       1
O               9.48230000    -26.28930000    -24.77760000      0.11428800      0.03122800     -0.04400650       8
H              11.08230000    -27.03040000    -23.93720000     -0.02447920      0.02218060     -0.04101470       1
H               8.47249000    -27.01070000    -23.70720000     -0.10707800     -0.05177390      0.08647870       1
O             -14.68080000      3.98045000      8.83562000     -0.10165600     -0.02327240      0.11890500       8
H             -13.46310000      4.34572000      7.80075000      0.09891220      0.03050770     -0.09031000       1
H             -14.28510000      4.80597000     10.51450000     -0.00171612     -0.00820902     -0.02309350       1
O             -12.33310000     29.68850000     53.46220000     -0.03735280     -0.03067670     -0.05127700       8
H             -14.16660000     30.25330000     53.04310000      0.04480080     -0.01691760      0.00408054       1
H             -11.94050000     28.18110000     52.14510000     -0.00757766      0.04668380      0.03920130       1
O              12.11630000    -32.83120000    -17.17590000     -0.01605330     -0.05297720     -0.02296630       8
H              11.42610000    -33.90460000    -18.72700000      0.02592770      0.02924410      0.06155350       1
H              12.43750000    -34.02780000    -15.71170000     -0.01119120      0.02550040     -0.03842010       1
O              28.21360000     15.33390000     40.61010000      0.10846300     -0.03211900     -0.03942230       8
H              26.74660000     15.82840000     41.17530000     -0.10841300      0.02870540      0.04225170       1
H              28.45450000     13.50950000     40.84070000     -0.01331330     -0.00393396     -0.00232555       1
O              -1.36310000      1.81777000      1.59825000     -0.04133910      0.01063760     -0.04236340       8
H              -0.35461900      0.97145300      2.68802000      0.04295120     -0.04662090      0.04162810       1
H              -1.24534000      3.48438000      2.24499000      0.00140105      0.03067730      0.00084597       1
O             -32.87420000     23.95150000     32.42090000     -0.06456000     -0.08803520      0.08690600       8
H             -32.57090000     25.32230000     31.57320000      0.03641490      0.10930300     -0.07731860       1
H             -34.54350000     24.38620000     33.19390000      0.02371130     -0.02066790     -0.01167220       1
O             -32.31740000     10.96170000     24.42510000      0.04477630      0.03210300      0.03330090       8
H             -33.55990000     10.45670000     23.29440000     -0.01480620     -0.01004050     -0.03980590       1
H             -30.73000000     11.64490000     23.63580000     -0.02830310     -0.01866860     -0.00201999       1
O             -19.78670000     64.45630000    -22.07490000      0.02760530     -0.03565600     -0.07118400       8
H             -20.83450000     64.00910000    -20.72290000     -0.01626130     -0.01799120      0.03498770       1
H             -19.46190000     62.78650000    -23.16070000     -0.01212500      0.04689440      0.03756060       1
O              70.09760000     21.19950000     40.48800000      0.00088211      0.00778134     -0.01933570       8
H              68.78300000     22.34150000     40.05400000     -0.00301838      0.02241830     -0.03682030       1
H              69.15180000     20.88180000     41.97960000      0.00780957     -0.02964290      0.04662780       1
O              56.31520000    -18.17060000      2.57198000     -0.01593330     -0.04907830      0.02470310       8
H              55.26800000    -19.36610000      3.95843000      0.03251340      0.03358000     -0.05995260       1
H              57.03750000    -19.20950000      1.00339000     -0.02015510      0.00920328      0.03612670       1
O              29.39350000     19.61980000    -11.18500000     -0.01912750      0.06702160      0.02325330       8
H              30.12880000     19.64390000    -12.75590000      0.02258710     -0.01126800     -0.04237230       1
H              29.26790000     18.09580000    -10.40910000      0.00514210     -0.06498450      0.01606260       1
O             -13.59980000      6.06800000     62.53970000      0.00440799     -0.04832790      0.01052500       8
H             -12.87540000      7.73753000     62.81290000      0.01234480     -0.01551760      0.01250830       1
H             -12.72710000      4.49515000     63.61090000     -0.01388930      0.05955120     -0.01643870       1
O               9.12169000      3.51169000     -1.14752000     -0.02566680     -0.01325210     -0.02243300       8
H               8.00663000      3.70367000     -2.74618000      0.02583460     -0.01664440      0.04742760       1
H               9.11139000      1.71676000     -0.45487300     -0.00306963      0.02999800     -0.02665920       1
O              42.57800000      3.11383000     29.01050000     -0.01753720     -0.01323840      0.01940870       8
H              42.71240000      4.90032000     29.13410000     -0.00438425      0.01852120     -0.00401423       1
H              43.88630000      2.55056000     27.97460000      0.03771610     -0.00757215     -0.01527390       1
O              -0.65195000     58.63550000     31.80590000     -0.03784370     -0.10486200      0.00854238       8
H              -2.35050000     58.97300000     32.33290000     -0.01439100      0.00698682     -0.00271557       1
H               0.14945900     60.07360000     31.57660000      0.05680120      0.10027300     -0.01061150       1
O              10.64680000     39.04690000     13.33680000      0.05436070     -0.00142297      0.00752610       8
H               9.44807000     38.65210000     12.08150000     -0.03602150      0.00324680     -0.00075354       1
H              10.14470000     39.45330000     15.02680000     -0.02187840     -0.00110016     -0.00488678       1
O             -16.62900000     20.53200000     19.55970000      0.01677090     -0.06337240      0.04741310       8
H             -16.49950000     18.57740000     19.88790000     -0.01241850      0.03225310     -0.04675570       1
H             -16.12750000     20.67300000     21.33870000      0.00212845      0.03761070     -0.00366654       1
O              29.81670000     34.98390000     49.11060000     -0.01003720     -0.01513930      0.01681030       8
H              30.08390000     33.35780000     50.04110000      0.01366500      0.01775710     -0.00343359       1
H              27.97340000     34.84800000     48.91320000      0.00300102      0.00376943     -0.01563070       1
O              13.97650000     33.34030000     20.03620000     -0.06361800     -0.02016070      0.09882200       8
H              14.86680000     33.69380000     18.70410000      0.06238290      0.04680390     -0.11050100       1
H              14.39480000     31.60070000     20.15000000     -0.00097823     -0.02593000      0.02007500       1
O               3.25507000    -25.69960000     19.41210000      0.00332156     -0.03116000     -0.03503960       8
H               2.41948000    -26.25990000     17.58820000      0.02493510      0.02591160      0.03779300       1
H               4.71902000    -26.84310000     19.71120000     -0.01882950      0.01169740     -0.00952277       1
O               0.20231000     18.63890000      1.25321000     -0.04023560     -0.08554650      0.07604860       8
H               1.42942000     17.36020000      1.05715000      0.01787510     -0.01580030     -0.00403939       1
H               0.49116400     19.86090000      0.16907400      0.02066640      0.10430700     -0.07735900       1
O               0.85398800      3.36601000     14.13070000      0.00649001     -0.01202880     -0.01250980       8
H               1.15678000      4.24264000     12.53130000      0.00441985     -0.00546993      0.00482632       1
H               1.51713000      1.60322000     13.93830000     -0.01163800      0.02486490      0.00507918       1
O             -33.29610000     52.70260000    -28.15470000     -0.08447350     -0.01977200      0.05897710       8
H             -31.55430000     52.46650000    -28.36850000      0.04032760     -0.00781430     -0.00779509       1
H             -34.00920000     51.77840000    -26.48920000      0.03336080      0.03560650     -0.05162220       1
O               4.50616000     52.48020000    -18.32130000      0.02817840     -0.01463730      0.01433320       8
H               5.92760000     52.64170000    -17.03330000     -0.02595730     -0.01902580     -0.03009810       1
H               3.78335000     50.69140000    -18.47460000      0.01485810      0.01970090      0.00478627       1
O             -39.46040000     36.02700000      4.42449000      0.02839960     -0.02942880      0.03467950       8
H             -39.87430000     34.21190000      4.48829000     -0.00072363      0.02505890     -0.01053720       1
H             -40.49450000     36.83320000      3.26287000     -0.02733810      0.00677938     -0.02383650       1
O              13.82330000     34.86220000     14.85660000     -0.05898810      0.01062840      0.03607300       8
H              15.23470000     34.50800000     13.95770000      0.06477870     -0.01919810     -0.03912050       1
H              12.94240000     36.19510000     14.01270000     -0.00587898      0.01305940     -0.00127151       1
O             -17.40920000    -11.16200000      9.53345000      0.07269590     -0.02639130     -0.03620790       8
H             -15.89680000    -11.77740000      8.41027000     -0.04807360      0.03623750      0.01458990       1
H             -17.56900000    -12.84880000     10.15490000     -0.02694340     -0.01496200      0.02212350       1
O             -43.93990000      3.70740000     19.23810000      0.00478240      0.04273430      0.02428500       8
H             -44.00280000      1.93014000     19.11530000     -0.00286921     -0.02900640     -0.01862350       1
H             -43.13400000      4.66928000     17.94210000      0.00063312     -0.01349050     -0.00953216       1
O             -22.32240000    -18.56430000     34.08510000     -0.07262430      0.07950940      0.02528460       8
H             -21.72280000    -19.62320000     32.89590000      0.03591110     -0.05819190     -0.05442170       1
H             -23.62280000    -17.59010000     32.90410000      0.03590930     -0.00932653      0.05022320       1
O              16.11070000     16.04630000     26.81510000     -0.00014246      0.03754980     -0.06526720       8
H              16.02700000     15.81000000     28.50570000     -0.00098610     -0.01803050      0.06627120       1
H              15.85450000     14.55580000     25.85450000     -0.00344089     -0.02658090      0.00144432       1
O             -22.14530000     -1.52023000     29.99310000      0.11869000      0.05224010     -0.06080790       8
H             -20.27260000     -2.50180000     29.42690000     -0.07806490     -0.00052157      0.01008750       1
H             -23.52680000     -2.04711000     30.82310000     -0.04695070     -0.04710810      0.03954870       1
O              43.05740000      8.85760000     37.59560000      0.03298210     -0.03536710     -0.01933990       8
H              43.87300000      6.86685000     38.07130000     -0.02489160      0.05795570     -0.02535420       1
H              43.64390000      9.42849000     35.85600000     -0.01311040     -0.02183390      0.03423120       1
O              -6.45388000    -29.17170000     -4.56063000     -0.03657910     -0.03841010     -0.01939940       8
H              -5.75863000    -29.89850000     -3.02578000      0.01147580      0.00559410      0.00576605       1
H              -7.30115000    -30.74240000     -5.33571000      0.02252970      0.03848760      0.00726648       1
O              55.22350000    -15.93920000    -12.31410000     -0.03151690     -0.04370410     -0.03464990       8
H              56.72890000    -17.03480000    -12.34930000     -0.01158200      0.00925483      0.00925179       1
H              53.83390000    -17.03130000    -13.37270000      0.03444000      0.03815200      0.03242070       1
O              11.55150000     -0.96579500     11.18240000      0.04015560     -0.07411590     -0.02886550       8
H              10.87590000      0.54572300     10.94750000     -0.04255290      0.09548040     -0.02785260       1
H              11.27200000     -1.22397000     12.88380000     -0.00197126     -0.02193740      0.05147180       1
O             -35.23800000     -4.03371000     48.97450000      0.02007800     -0.01479600      0.00328444       8
H             -33.98900000     -4.11072000     47.64800000     -0.00204108      0.01154200     -0.01077320       1
H             -34.62070000     -5.41958000     49.99580000     -0.00553705      0.00050317      0.00890245       1
O              16.10210000     -8.24538000     -7.82706000     -0.01369440     -0.06391320     -0.00144420       8
H              14.23940000     -8.38854000     -7.38473000      0.04905380     -0.01197660     -0.01594240       1
H              16.91370000    -10.09100000     -8.21810000     -0.03747000      0.07019650      0.02133280       1
O              21.24360000     16.58080000     12.05250000     -0.01085290      0.08851990     -0.05002930       8
H              20.85400000     18.35400000     12.71000000      0.01154850     -0.05129720     -0.00374373       1
H              21.22390000     15.40460000     13.29410000     -0.00106673     -0.03946370      0.06131410       1
O              11.74310000     22.29410000     -8.06760000     -0.00095419     -0.10198500      0.05195030       8
H              10.45990000     21.46330000     -6.66357000      0.01983560      0.03833680     -0.04338200       1
H              12.87160000     20.64510000     -8.06490000     -0.02660160      0.06502780     -0.01099450       1
O              23.96580000     42.77990000     30.90830000     -0.03180310     -0.01957360     -0.06866290       8
H              22.56560000     41.63610000     31.43740000      0.01627050      0.02530710     -0.00933276       1
H              23.93740000     42.75170000     28.78810000      0.00173100      0.00873146      0.08356500       1
O              -8.32817000      8.27575000      4.31802000      0.00936729     -0.02514290      0.07481570       8
H              -8.33734000      8.83986000      2.73891000      0.03900350      0.05751970     -0.09898280       1
H              -9.92991000      7.56460000      3.99518000     -0.03922850     -0.03433270      0.03267250       1
O              17.61210000    -24.56100000     12.83650000     -0.02144230      0.01244670      0.01553930       8
H              17.18620000    -24.49860000     11.05110000      0.00322251     -0.01062100     -0.00269264       1
H              16.03530000    -24.06110000     13.70130000      0.02071020     -0.00486806     -0.00791832       1
O              -4.09844000     12.32780000     40.67090000     -0.14841800      0.07739500     -0.08872770       8
H              -2.92599000     11.38610000     41.25310000      0.12090500     -0.09685150      0.05088890       1
H              -5.03669000     11.13930000     39.30440000      0.02922550      0.01719730      0.03733420       1
O              44.38140000     42.29350000     -0.46885700      0.05105320     -0.00308547      0.02390800       8
H              46.34280000     42.86480000      0.14998000     -0.07474260     -0.02526310     -0.00761715       1
H              43.08610000     41.65980000      0.82045000      0.03523030      0.01746370     -0.00891142       1
O              24.60240000      8.92759000    -33.17500000      0.04957360      0.11457800      0.02510250       8
H              26.32310000      9.01560000    -32.27790000     -0.03608730      0.02893230     -0.01781040       1
H              24.68340000      7.29557000    -33.07300000     -0.02113190     -0.14474900     -0.00502831       1
O             -18.34730000     44.85480000      3.82154000      0.02328410      0.04773670      0.03835370       8
H             -19.01510000     43.16720000      3.48416000      0.00935815      0.00103621      0.01628100       1
H             -17.51910000     45.31500000      5.62957000     -0.01678260     -0.04860480     -0.04329560       1
O               8.19425000    -29.18910000     33.16750000      0.07368190      0.01045340     -0.00495326       8
H               9.58297000    -30.46320000     32.64020000     -0.03816840      0.01953120      0.01271090       1
H               9.42713000    -27.82880000     33.81910000     -0.03340340     -0.02448300     -0.00679117       1
O              -1.27046000     31.02020000      3.06619000      0.02131190     -0.05109910      0.14514400       8
H              -0.49086000     32.08480000      4.53707000     -0.02914170     -0.03504140     -0.03030500       1
H              -1.20229000     32.17760000      1.92146000      0.00194382      0.09473100     -0.11630100       1
O              -6.77683000     -8.43235000      8.28799000      0.04535140     -0.04555660     -0.03594760       8
H              -8.22961000     -7.53797000      8.32458000     -0.05527240      0.03782160      0.00998973       1
H              -5.97870000     -8.54091000      9.87995000      0.01342770      0.01271340      0.02437010       1
O              -4.21346000      3.62088000     18.97080000     -0.01064880     -0.00191521     -0.02032490       8
H              -2.79213000      4.37428000     19.96740000     -0.01332630     -0.00756574     -0.04626760       1
H              -4.47399000      3.71045000     16.99790000      0.02580640      0.01075380      0.06557450       1
O              25.02460000    -14.76400000     -1.47465000     -0.01689830      0.00446290     -0.02884110       8
H              24.76670000    -16.11150000     -2.76520000      0.00798172      0.01104480      0.02428240       1
H              24.16130000    -13.27540000     -2.21277000      0.00282956     -0.01634130      0.01292310       1
O              25.04840000      4.83485000     45.58640000      0.04089770      0.02591190     -0.04164450       8
H              24.71550000      3.39492000     46.51810000     -0.00429883     -0.03037140      0.02558250       1
H              26.71380000      4.44472000     44.61840000     -0.03723250      0.00794613      0.02303520       1
O              14.57930000     26.22310000     50.43020000      0.02251090     -0.05169570      0.00570747       8
H              16.22470000     26.32760000     51.63400000     -0.05375050      0.00290348     -0.03159840       1
H              14.23690000     24.37770000     49.90960000      0.01493240      0.04878040      0.02125430       1
O             -15.63780000     10.90950000     20.50580000     -0.02193070      0.07010840     -0.05764970       8
H             -14.09030000     10.17520000     20.37740000      0.05810700     -0.03658970      0.00053485       1
H             -16.74410000     10.31000000     21.64700000     -0.04048760     -0.03553570      0.06435970       1
