192
TotEnergy=-1102.29637000 cutoff=-1.00000000 nneightol=1.20000000 pbc="T T T" Lattice="24.80484000       0.00000000       0.00000000      -0.00000100      24.80484000       0.00000000      -0.00000100      -0.00000100      24.80484000" Properties=species:S:1:pos:R:3:force:R:3:Z:I:1
O              10.26650000      4.08164000     23.49650000      0.10437800      0.02928170      0.03003670       8
H               9.09989000      3.59559000     22.42480000     -0.08261350     -0.03753170     -0.06502730       1
H               9.50228000      4.67766000      0.14674200     -0.01672500      0.01260000      0.03280490       1
O               0.10229700     19.76380000      3.48411000      0.15993800      0.02023250      0.02574780       8
H               1.41465000     20.23010000      5.13995000     -0.06471100     -0.02547450     -0.06784120       1
H              23.35610000     19.73680000      4.10791000     -0.09217340      0.00628892      0.04396960       1
O              16.33400000     18.63340000     17.59360000      0.05529380     -0.05235360      0.07418330       8
H              14.99120000     18.87330000     16.53790000     -0.06183620      0.00918596     -0.03307990       1
H              16.16240000     16.91710000     18.42260000     -0.00191235      0.03110860     -0.03981020       1
O              20.23580000      4.15385000      3.14626000     -0.01863420     -0.00503618     -0.06813140       8
H              19.37390000      4.79844000      1.40554000      0.03888420     -0.02784660      0.06971160       1
H              20.83750000      2.35823000      2.78429000     -0.02565240      0.03368840     -0.00507520       1
O              17.96190000     12.03120000     18.17750000      0.27263200     -0.28030400     -0.16749700       8
H              19.72010000     12.68760000     18.06120000     -0.03471970     -0.00822459      0.00618333       1
H              17.11700000     13.05820000     18.75670000     -0.23597800      0.27648700      0.16332500       1
O               2.08226000     18.60670000     22.55170000      0.06592710     -0.04962810     -0.19108200       8
H               3.95213000     18.33270000     22.55210000     -0.02727050     -0.00165760     -0.01653710       1
H               1.93977000     18.93160000     24.08250000     -0.03954690      0.05028070      0.20714400       1
O               6.18074000     16.29190000     14.76940000     -0.03769410     -0.07239350     -0.02815790       8
H               6.99566000     17.68310000     15.36650000      0.01795240      0.05314950      0.01230410       1
H               4.35553000     16.38480000     14.58990000      0.01445690      0.01910710      0.00816508       1
O               4.27671000      7.76178000     11.98950000      0.00154885     -0.00607598      0.03072870       8
H               2.43084000      7.78337000     12.18000000      0.01680410     -0.00372263      0.00318275       1
H               5.04590000      7.28469000     13.66060000     -0.02289420      0.01173800     -0.03979870       1
O              14.63280000     11.95340000      1.49096000     -0.11136300      0.05183330     -0.07230050       8
H              15.57450000     10.99030000      2.49801000      0.03918210     -0.06388830      0.04573690       1
H              12.90520000     11.10410000      0.97646200      0.06543960      0.01577450      0.02839360       1
O              12.55370000     15.70530000      6.44371000      0.02909890     -0.04614720     -0.02341050       8
H              13.24120000     13.96250000      6.39282000     -0.00827274      0.02173180      0.01795350       1
H              12.55190000     15.83570000      4.62221000     -0.00006552      0.02117040      0.00024618       1
O               2.06372000      4.47877000     21.71940000     -0.04844760      0.00621054      0.05230730       8
H               0.68441300      4.58868000     23.25930000      0.07200740     -0.01782980     -0.05715220       1
H               2.99267000      2.87083000     21.63070000     -0.01441520      0.01169880      0.01949110       1
O              23.34160000      1.64850000     14.05140000     -0.20370000      0.11256300     -0.01224900       8
H              -0.18052100      0.81352100     13.86900000      0.22353500     -0.13816000     -0.00580145       1
H              22.86060000      1.37306000     12.27780000     -0.01277850      0.02137570      0.01222920       1
O              23.40570000      4.72807000     18.32170000     -0.11717300     -0.08595230     -0.21897000       8
H              -0.43219900      5.14851000     19.47670000      0.14384300      0.05474320      0.16853300       1
H              24.56070000      3.83518000     16.91980000     -0.05429390      0.02640080      0.04868400       1
O              22.52410000     14.18490000     21.10500000     -0.06341630      0.09826570      0.10472400       8
H              23.34720000     13.80680000     19.72460000      0.07239760     -0.02982230     -0.09824210       1
H              22.59060000     16.17760000     21.23860000     -0.00626165     -0.06705750     -0.00334546       1
O              13.30260000     24.65350000     21.94890000      0.10532800      0.08489090      0.07281290       8
H              12.69780000      1.52586000     22.34630000     -0.01134680     -0.01232770     -0.00357366       1
H              12.22760000     23.69190000     21.16500000     -0.09114210     -0.07170280     -0.05965020       1
O               6.87139000     12.58610000     10.42340000     -0.07218670     -0.02415910      0.02139870       8
H               6.56572000     13.75440000     11.92100000      0.00111159     -0.02164530     -0.03079970       1
H               5.13912000     11.41750000     10.17570000      0.07571790      0.05003900      0.02033840       1
O               5.99585000     11.49530000      2.92380000      0.02120550      0.03723550      0.00803391       8
H               5.38359000     12.45460000      1.45966000      0.00377591     -0.01309340      0.01685650       1
H               6.90766000     12.70820000      4.07224000     -0.02575650     -0.02107230     -0.02588770       1
O              20.49160000     15.82970000      9.42250000      0.01503430      0.05688480      0.10849600       8
H              20.34800000     15.02850000      7.90867000     -0.03896890     -0.02730090     -0.04216420       1
H              19.21950000     16.20930000     10.85430000      0.02605880     -0.02544550     -0.06449300       1
O               3.75856000     10.42100000     22.64740000      0.01108070      0.04992520     -0.02377970       8
H               3.53414000     12.09060000     21.64890000     -0.00536808     -0.06612250      0.03407530       1
H               2.19157000      9.50936000     22.88090000     -0.00207937      0.01765030     -0.00493670       1
O              15.41010000     24.84980000     16.42840000      0.11917300      0.02197150     -0.09101660       8
H              16.95980000      0.84717400     17.14080000     -0.04066640     -0.01329260     -0.01811650       1
H              14.38700000     -0.22253500     17.68060000     -0.08007670     -0.01832430      0.10034900       1
O               6.20061000     23.02340000     17.21700000      0.09058680      0.03184840     -0.00932488       8
H               6.77634000     24.30880000     15.87430000     -0.03371720     -0.02611470      0.02464470       1
H               4.60364000     22.41990000     17.46970000     -0.05755800     -0.00374015     -0.01371400       1
O              16.95700000      7.59085000     24.36360000      0.00943493     -0.05227720     -0.05693330       8
H              15.95030000      6.05328000     -0.91371100      0.00330691      0.02893680      0.02291220       1
H              18.04390000      7.49747000     22.78320000     -0.01325280      0.01990770      0.05190270       1
O              19.69050000     19.54380000     13.40550000      0.11803400      0.00901864     -0.15601900       8
H              20.03770000     21.30230000     13.24620000      0.00774393      0.00507245     -0.00861227       1
H              18.73030000     19.51850000     14.65170000     -0.12637700     -0.01363910      0.16611600       1
O               8.04231000      2.12505000     14.39240000     -0.00284504     -0.09039660     -0.02423210       8
H               7.78159000      2.76035000     12.77490000     -0.00428588      0.00300931     -0.04410330       1
H               8.02190000      3.53863000     15.28240000      0.01322750      0.08339910      0.06558730       1
O               7.46525000     16.71070000     22.51340000      0.05180930     -0.05100320      0.00226824       8
H               7.87662000     16.25260000     24.30760000     -0.00990145      0.01828990     -0.03201310       1
H               8.81387000     15.61550000     21.58740000     -0.04573300      0.03029830      0.02298590       1
O               9.34095000      7.15487000     16.46980000     -0.07035640      0.00995798      0.01212830       8
H               7.38689000      7.57161000     16.78020000      0.08466810      0.00192774     -0.00908232       1
H              10.33620000      8.64376000     15.86280000     -0.02605160     -0.00935529      0.00549517       1
O              16.32890000      6.85837000     10.35950000     -0.01265890     -0.03703060     -0.00409749       8
H              16.84710000      6.15660000     11.97270000     -0.02615340     -0.01304600      0.01021220       1
H              17.26030000      8.30434000     10.44390000      0.03111560      0.05377960     -0.00833543       1
O               1.13702000      4.70057000      2.93086000     -0.00234917      0.00769749     -0.01736970       8
H              -0.43174800      4.26827000      3.70233000     -0.00125829      0.00548933      0.00562298       1
H               2.20653000      5.40430000      4.20464000      0.00332866      0.00368728      0.00931516       1
O              24.09320000      9.08867000     15.47090000      0.06218030      0.10671900     -0.01869710       8
H              23.92750000      7.55979000     16.08140000     -0.03063900     -0.10086800      0.03408170       1
H              22.79140000      9.82193000     14.58210000     -0.03397290     -0.00163108     -0.02350460       1
O              11.02270000     11.32780000     14.06790000     -0.19056900     -0.16166000      0.04304110       8
H              12.07490000     12.39490000     13.66600000      0.15327000      0.15975300     -0.06048840       1
H               9.48545000     11.40770000     12.94930000      0.03456960      0.00373614      0.01629460       1
O               2.97209000     24.99440000      1.78389000      0.04821340     -0.03501950     -0.00782116       8
H               1.40326000     24.26460000      2.08262000     -0.03189800      0.00377164      0.00399759       1
H               3.12804000      1.95487000      1.62781000     -0.02222160      0.01630550      0.00527213       1
O              24.32730000     11.11410000      7.79032000      0.05005790     -0.08349970      0.33071400       8
H              24.12180000     11.49140000      6.37379000     -0.04404110      0.09297720     -0.33163200       1
H              24.25180000     12.59810000      8.82949000     -0.00412738     -0.00270599     -0.00405561       1
O              12.35820000     23.40920000     11.42350000     -0.09997010      0.00146233     -0.00492795       8
H              10.59370000     -0.51518300     11.92980000      0.07511530     -0.02739590     -0.01551930       1
H              13.65330000     24.42080000     12.07650000      0.01764990      0.01731870      0.02536800       1
O              20.75140000     21.88380000      6.84912000      0.09196480     -0.08017600     -0.02669800       8
H              19.64570000     23.07680000      7.19565000     -0.08056040      0.06433170      0.02225790       1
H              20.27450000     20.24990000      7.46583000     -0.00909884      0.00522856      0.00484710       1
O              20.76420000     24.15400000      1.04497000     -0.04642390     -0.01907220     -0.00173418       8
H              21.71460000     -1.07089000     24.40350000      0.01707360     -0.00126699     -0.01775970       1
H              19.13560000     23.24530000      0.61553900      0.03014600      0.02178450      0.02055520       1
O               7.35444000     23.56360000      4.18021000     -0.02840530      0.07088480     -0.05086430       8
H               7.41052000     22.27400000      5.22982000      0.02439630     -0.08872180      0.06983050       1
H               5.52819000     23.81750000      4.32906000      0.01167760      0.01584290     -0.01950630       1
O              13.19960000     13.40630000     20.60700000      0.09065630      0.18798300     -0.03624340       8
H              12.61700000     12.06990000     21.19070000     -0.09431500     -0.19339000      0.05345020       1
H              13.84560000     13.96220000     22.24780000      0.00519534      0.01085450     -0.01607270       1
O              16.42640000     12.76000000     12.75210000      0.09410180      0.08441220      0.12306500       8
H              15.58220000     12.17610000     11.52300000     -0.08758620     -0.07374400     -0.11899000       1
H              16.58740000     11.70470000     14.20280000     -0.00771012     -0.01137360     -0.00269708       1
O              11.17260000     21.01270000     19.13590000      0.00497364     -0.06019000      0.00358846       8
H               9.48617000     21.20070000     18.58840000     -0.02709360      0.02483530     -0.01184790       1
H              11.06130000     19.12010000     19.19940000      0.01694900      0.03581600      0.00440380       1
O              18.52450000     15.25240000      4.52689000      0.22945100      0.05254110     -0.01457790       8
H              17.14700000     14.70880000      3.99128000     -0.18470800     -0.06592120     -0.06373060       1
H              19.69590000     14.98540000      2.83732000     -0.04051010      0.01340650      0.07585770       1
O              22.44530000      6.83413000     10.11310000     -0.07639560     -0.06201490     -0.05933210       8
H              22.28930000      7.36093000      8.28869000      0.01692730      0.00301121      0.04102280       1
H              21.07510000      5.29742000      9.82328000      0.05875630      0.05812860      0.02457970       1
O              15.28360000      4.14103000      5.91520000      0.02806950      0.04619140     -0.02966620       8
H              15.63010000      5.46542000      7.20119000     -0.00653824     -0.02251540      0.00326529       1
H              16.41300000      4.82764000      4.51653000     -0.02075700     -0.02827270      0.03179760       1
O              15.04900000     21.54050000      1.56720000      0.00020075      0.01723050     -0.00883771       8
H              14.34730000     23.04090000      0.71275200      0.00646876     -0.01793640      0.00736062       1
H              15.22470000     21.95320000      3.34894000     -0.00181939      0.00155485     -0.00409501       1
O              14.80090000      5.48243000     15.47380000     -0.01090520      0.02721460      0.01806240       8
H              17.04240000      6.31474000     19.86260000     -0.10848300     -0.03762680     -0.01764640       1
H              13.10300000      6.29442000     15.64800000      0.04087590     -0.02130760     -0.00588055       1
O               0.11601200     17.74740000     13.29470000     -0.05897890     -0.00411892      0.02607530       8
H              24.04650000     17.90200000     15.01020000      0.03225760      0.00194739     -0.04338550       1
H              23.31390000     17.69850000     12.29150000      0.03197310     -0.00159188      0.00628216       1
O              11.33990000     18.20050000     12.93290000     -0.07448040      0.19971700      0.00650988       8
H              11.68200000     20.33560000     11.51320000      0.00355516     -0.07743230      0.05968820       1
H              12.20580000     16.90050000     12.49870000      0.08403020     -0.10895600     -0.05603080       1
O               0.58936500     21.40570000     17.45870000      0.01341940      0.19160300     -0.16063400       8
H              24.05410000     22.37900000     17.99500000     -0.03543740      0.01995590      0.01874420       1
H               0.73929700     20.13690000     18.30580000      0.02192280     -0.20829300      0.15137400       1
O              18.69230000      6.58549000     19.62030000      0.11773300     -0.06024370      0.02376910       8
H              19.93500000      5.26806000     18.88460000     -0.01156050      0.01219130      0.00652482       1
H              18.85600000      8.00366000     18.70230000      0.00418104      0.08644160     -0.05613550       1
O               8.07251000      2.75982000      9.04290000      0.05436500     -0.02039140     -0.03859190       8
H               7.22026000      4.18059000      8.38927000     -0.01768690      0.01495860     -0.00634037       1
H               9.40524000      2.46849000      7.64620000     -0.03864020      0.00227049      0.04375590       1
O               6.16215000      0.60861100     22.42390000      0.00485769      0.09674660      0.07210210       8
H               5.65825000     24.03330000     23.27030000     -0.02333770     -0.06187240      0.03670110       1
H               6.39401000     25.14080000     20.81400000      0.01616600     -0.03561160     -0.11765400       1
O               8.68915000     10.16710000     21.98260000      0.09396040     -0.08910710     -0.05895520       8
H               9.36014000      8.06365000     21.38310000     -0.02482300      0.10094500      0.02301030       1
H               7.34196000      9.62948000     22.91730000     -0.05574990     -0.00733723      0.03279120       1
O               7.80240000     16.21880000      6.71718000     -0.03621860      0.07533440     -0.09812630       8
H               7.98798000     15.15350000      7.97388000      0.01892640     -0.07585550      0.08329720       1
H               9.14579000     16.02290000      5.49336000     -0.00863794      0.00789936      0.01985080       1
O              11.06830000      7.06797000      3.01449000     -0.21559800      0.18039000     -0.05455100       8
H              12.23740000      6.12977000      3.20319000      0.22733700     -0.18441700      0.04078420       1
H              10.47030000      7.52009000      4.61914000     -0.01064410      0.00291983      0.01747620       1
O              20.77420000     23.94320000     19.91740000     -0.05940730      0.07124260     -0.01268760       8
H              19.03840000     23.24790000     20.47730000      0.04919360      0.01502370     -0.01840350       1
H              20.41230000     25.88020000     19.24320000      0.01865150     -0.08856830      0.02912480       1
O               5.56710000      7.05690000      5.38398000     -0.01005600     -0.07670930      0.08552010       8
H               5.72811000      7.69452000      3.84364000      0.01138820      0.05562680     -0.07824250       1
H               5.65073000      8.22643000      6.72404000     -0.00361042      0.01785570     -0.00266772       1
O              19.37530000     19.31480000     22.19180000     -0.09165560     -0.02540680     -0.01285140       8
H              16.73340000     18.50520000     20.79380000      0.07940580      0.04322740      0.03040910       1
H              18.53420000     19.51360000     23.85190000      0.01091600     -0.00362536     -0.01794940       1
O              10.05650000     18.88150000      1.89109000      0.07495800     -0.06370590     -0.05180410       8
H              10.03470000     20.62370000      1.67359000     -0.00610681      0.03898500      0.00133172       1
H              11.67210000     18.43680000      0.64789600     -0.06782090      0.02255300      0.05662510       1
O              15.80580000     23.83290000      6.85406000      0.02739440      0.01869530     -0.05799440       8
H              15.16870000     23.27590000      8.36209000     -0.02622510     -0.00547303      0.04049950       1
H              15.64480000      0.85787100      6.56634000     -0.00522288     -0.01108190      0.01339110       1
O               3.46861000     19.76570000      8.57027000      0.08557820     -0.06314980     -0.09489850       8
H               4.68721000     18.07680000      7.98083000     -0.04076840      0.07726110      0.01493420       1
H               2.83734000     19.04560000      9.97060000     -0.04201390     -0.03174260      0.07133400       1
O              24.13680000      1.71944000      7.55635000     -0.02787720      0.00172566     -0.03791790       8
H              23.17880000      1.47194000      5.98327000     -0.00818998      0.01101960      0.02530040       1
H               0.52343900      0.49275500      7.05289000      0.03094350     -0.01339870      0.01929530       1
O              23.78800000      9.49142000     23.74420000      0.10476700      0.31760300     -0.24976400       8
H              22.51310000     11.25590000     23.69480000      0.06635700     -0.08151150     -0.00468253       1
H              23.09790000      8.59238000     -0.14924600     -0.18190500     -0.24557600      0.25393100       1
O               3.43798000     24.44370000     10.12350000      0.07511410     -0.01225890      0.00734321       8
H               5.44485000     -0.34261300      9.95074000     -0.07601820      0.00721326      0.00254861       1
H               3.18299000     22.63490000     10.41510000      0.00185124      0.02053510     -0.00664231       1
O              24.38460000     14.22710000      2.08052000     -0.05760600     -0.11473800     -0.04421390       8
H              -0.73331400     14.46810000      0.28389300     -0.00238344     -0.02394060      0.00220013       1
H              24.96740000     15.73930000      2.21623000      0.05876610      0.14199300      0.04472930       1
O               2.50772000     13.05140000     17.55150000     -0.01757720      0.06104300      0.12402700       8
H               3.85348000     13.98520000     18.54160000     -0.02682490     -0.02321910     -0.03907490       1
H               3.10175000     12.52300000     16.08630000      0.04196700     -0.03228160     -0.08450690       1
