192
TotEnergy=-1103.40011000 cutoff=-1.00000000 nneightol=1.20000000 pbc="T T T" Lattice="24.45756000       0.00000000       0.00000000      -0.00000100      24.45756000       0.00000000      -0.00000100      -0.00000100      24.45756000" Properties=species:S:1:pos:R:3:force:R:3:Z:I:1
O              23.18150000     -3.48246000    -30.54920000     -0.01105660      0.00366977     -0.02076710       8
H              21.63240000     -2.93084000    -31.50820000      0.00977321     -0.01341860      0.01272170       1
H              23.65100000     -5.06789000    -31.41370000     -0.00075154      0.00758311      0.01106230       1
O              46.76000000     46.29880000     -1.00800000      0.00144233     -0.00910074     -0.05068470       8
H              46.98730000     48.03100000     -0.47053200      0.00514343     -0.00571377     -0.00614651       1
H              47.10830000     46.11180000     -2.96550000     -0.00827528      0.00537480      0.05367050       1
O              12.16840000      2.13037000     16.32820000      0.04269770      0.02775530      0.07722900       8
H              12.97680000      2.62698000     18.13760000     -0.02758530     -0.00515891     -0.07401680       1
H              11.84970000      0.31844800     16.55850000     -0.01679560      0.00017280     -0.00667208       1
O              -6.24735000     -8.42384000     -2.64353000      0.04215480     -0.11118400     -0.06964960       8
H              -4.31585000     -9.01353000     -2.85466000     -0.05497020      0.01199690     -0.00354858       1
H              -6.14569000     -7.12022000     -1.65595000      0.00447327      0.10638700      0.08494900       1
O               6.62485000     31.79510000     18.49160000     -0.01872520     -0.03421140     -0.03552240       8
H               7.42438000     32.85370000     19.62770000      0.01782940      0.03508020      0.02984760       1
H               7.76627000     31.60560000     17.06930000     -0.00373994     -0.00361886      0.00278154       1
O              -5.61290000      8.90886000      6.56416000      0.02717800      0.03750420      0.02524020       8
H              -6.09546000      7.63407000      7.69929000     -0.01166690     -0.03412470      0.00324484       1
H              -6.11674000      8.62770000      4.86516000     -0.01771620     -0.00945982     -0.01732630       1
O              45.87590000     27.07130000     14.31130000     -0.08436870     -0.05265350      0.04260360       8
H              47.45990000     27.09040000     13.67780000      0.07870360      0.00303251     -0.02930530       1
H              45.56290000     25.20440000     14.73760000      0.00859768      0.04913330     -0.01106600       1
O              -3.17283000    -32.71370000      7.02202000     -0.07240450     -0.04032250      0.02636900       8
H              -2.53101000    -31.43040000      6.00836000      0.01772920      0.02295680     -0.03221130       1
H              -5.05441000    -32.91130000      6.62420000      0.04943430      0.00471610      0.00741442       1
O              32.35120000    -34.10070000     17.55340000     -0.02035310      0.05710560     -0.08705010       8
H              31.60690000    -34.16350000     15.63870000      0.01810110     -0.01495710      0.07690470       1
H              32.61450000    -35.51400000     18.59750000     -0.00494313     -0.03033460      0.00993961       1
O               7.94664000    -28.11390000    -25.11120000     -0.11399500     -0.07552760      0.07959550       8
H               9.41732000    -27.62160000    -25.67400000      0.11362600      0.03525430     -0.03573200       1
H               8.23457000    -29.44050000    -23.73890000     -0.00487142      0.02934990     -0.02829070       1
O              -9.68690000      1.45774000      6.90728000     -0.04036810      0.00589142      0.02158600       8
H             -10.80490000      2.57794000      5.83422000      0.02043880     -0.01928930      0.01272570       1
H             -10.86720000      0.81881300      8.30308000      0.01234430      0.01560540     -0.03458670       1
O             -11.68290000     29.18210000     51.81500000     -0.04334090     -0.00522990     -0.01509340       8
H             -13.64030000     29.17680000     51.43250000      0.05621150     -0.00008961      0.01122110       1
H             -10.71630000     28.30210000     50.48680000     -0.02042280     -0.00074642      0.00840568       1
O              15.53050000    -32.04100000    -13.77180000      0.03103270      0.00542143     -0.10446400       8
H              15.92910000    -33.51970000    -14.98940000     -0.00531578      0.02978420      0.02918270       1
H              14.99820000    -32.77760000    -12.34860000     -0.02804950     -0.03156260      0.07785750       1
O              29.23860000     15.53270000     37.93150000      0.07024740     -0.00963153     -0.06771260       8
H              27.95560000     15.50690000     39.03710000     -0.06908240      0.00833817      0.06770860       1
H              28.94360000     14.05430000     36.88960000      0.00256465     -0.00029058     -0.00623510       1
O               0.10539800      1.31482000      1.81659000     -0.03626650      0.00532293      0.01501610       8
H              -0.54928400      0.17372100      3.15794000      0.02294040      0.00784911     -0.01634000       1
H               1.67252000      0.89644900      1.05617000      0.01907880     -0.01049440      0.00595768       1
O             -32.12500000     20.93010000     31.26970000      0.01290000      0.00990602     -0.02086080       8
H             -32.89350000     22.52480000     31.68310000     -0.00298364     -0.00306953     -0.00290283       1
H             -32.55610000     19.70360000     32.47850000     -0.00686372     -0.00852970      0.02558280       1
O             -33.90220000     12.35500000     23.90960000     -0.00547333      0.00130326     -0.01098820       8
H             -34.61330000     11.48560000     22.44400000      0.00404956      0.00466226     -0.00057855       1
H             -33.03810000     13.82460000     23.16730000      0.00623795     -0.00990714      0.00605419       1
O             -21.58140000     66.01170000    -18.62340000      0.05328880      0.07045790      0.09416030       8
H             -20.51880000     66.26210000    -16.66640000     -0.04143610     -0.01059710     -0.08250520       1
H             -21.64500000     64.36690000    -19.14250000      0.00074123     -0.05328640     -0.01110650       1
O              67.67220000     21.32570000     40.28170000     -0.06449010      0.03829070     -0.01743980       8
H              66.41610000     23.03930000     39.51620000      0.04156070     -0.05229660      0.01812740       1
H              66.35600000     20.05550000     40.84600000      0.02663460      0.02118170     -0.00547848       1
O              55.98660000    -19.47210000      3.02082000      0.00336999     -0.10432000      0.00947264       8
H              55.67640000    -20.31450000      4.89595000      0.00945239      0.02694860     -0.06160240       1
H              55.95600000    -21.28390000      1.82425000     -0.01248140      0.07029190      0.04865350       1
O              29.78150000     19.24260000    -14.50800000      0.00348160     -0.03710580      0.02404870       8
H              31.78110000     19.26260000    -14.72820000     -0.03757380     -0.01239300      0.00656718       1
H              29.04260000     18.04580000    -13.00740000      0.03727290      0.03658570     -0.03886920       1
O             -14.75830000      6.33452000     62.81520000      0.04968460      0.01090830      0.00601101       8
H             -13.98930000      8.11188000     62.50480000     -0.00701548     -0.05883100      0.00572199       1
H             -13.40960000      4.93376000     63.25750000     -0.03920230      0.05061460     -0.00854313       1
O               5.36638000      0.58705300      0.18053000     -0.00685082     -0.00989047      0.08006580       8
H               5.36243000      1.29939000     -1.39317000     -0.00432252      0.00611771     -0.06073330       1
H               5.77609000     -1.19690000      0.34775200      0.01012380      0.01103110     -0.01967690       1
O              44.56260000      3.85374000     25.53230000      0.02524730     -0.01341660      0.05529110       8
H              43.82250000      5.44783000     26.19400000      0.00637201     -0.02264680     -0.00599835       1
H              45.60710000      2.92955000     26.99460000     -0.03654350      0.04117320     -0.05690360       1
O              -0.56498900     60.57030000     31.20740000     -0.02617780      0.03651590      0.00517121       8
H              -1.95522000     59.51910000     31.58170000     -0.00908471     -0.03956770     -0.00069925       1
H              -1.75547000     62.08070000     31.14710000      0.03664230      0.00368158     -0.00141805       1
O              12.20770000     35.47580000     11.75400000     -0.19080400      0.02122190      0.01329560       8
H              11.09370000     36.40710000     10.41920000      0.02475400     -0.02663360      0.02619510       1
H              13.77340000     35.56940000     11.36300000      0.15293800      0.00684984     -0.04148110       1
O             -17.82970000     20.31440000     18.82420000     -0.00111097     -0.08164360      0.01861010       8
H             -17.55950000     18.40290000     18.21000000     -0.01054140      0.05820500      0.02323520       1
H             -18.23740000     20.01710000     20.71910000      0.01952500      0.01351290     -0.04758520       1
O              31.89350000     34.59600000     50.59450000      0.05566520     -0.08123110     -0.00304205       8
H              31.29010000     32.82820000     51.01530000      0.01686720      0.02738710     -0.00838175       1
H              30.59410000     35.59510000     51.01480000     -0.06882790      0.05420150      0.01722150       1
O              13.56650000     34.18900000     19.62080000     -0.03082190     -0.02432380      0.04064720       8
H              14.70850000     34.46730000     18.29850000      0.02215050      0.00784464     -0.02088430       1
H              13.88680000     32.40460000     20.20520000      0.00340540      0.01872100     -0.01905620       1
O               3.09162000    -25.12640000     17.21350000     -0.05802800      0.07011320     -0.01745400       8
H               1.62274000    -26.01900000     17.74260000     -0.02186970     -0.00559464      0.00480641       1
H               4.29596000    -26.28250000     17.39060000      0.07722720     -0.06526820      0.01056300       1
O              -0.96097400     18.36080000      2.98694000      0.00914843      0.01085600     -0.00614666       8
H               0.80724200     18.71390000      2.64494000     -0.00928624     -0.00883322      0.00938125       1
H              -1.77835000     18.98350000      1.49697000     -0.00667744      0.00703234     -0.00893229       1
O               2.41509000      2.00679000     12.83190000     -0.01354730      0.02486790     -0.05299610       8
H               2.35188000      0.73764500     11.42380000      0.00379145      0.00603175      0.00600810       1
H               2.52782000      1.04235000     14.28860000      0.01047560     -0.02449670      0.04302150       1
O             -33.65650000     54.03340000    -29.24720000     -0.07586990     -0.03445430      0.02379780       8
H             -31.98660000     54.19620000    -29.00140000      0.09587570      0.03181980     -0.02116580       1
H             -33.63010000     52.79640000    -27.80050000     -0.02862570      0.00109291     -0.00496236       1
O               6.49577000     51.73060000    -16.64500000      0.01603530      0.00307114      0.00432307       8
H               6.00933000     53.07070000    -15.44730000      0.00467022      0.00045905     -0.00293195       1
H               5.44094000     50.32040000    -16.24350000     -0.02359990     -0.01461050     -0.00481741       1
O             -36.37980000     38.89070000      3.33770000     -0.07204420      0.08854790      0.15829200       8
H             -36.17270000     38.09320000      1.97079000      0.03308820     -0.09909540     -0.15638200       1
H             -38.26490000     39.20440000      3.39125000      0.03409430      0.00140507      0.00365616       1
O              18.59240000     35.50360000     17.24580000      0.00928275     -0.01113020     -0.06636650       8
H              18.65660000     35.47520000     15.28080000     -0.01063790      0.01644910      0.05420420       1
H              19.47200000     33.86890000     17.42310000     -0.00701368     -0.00143210      0.01477340       1
O             -15.99350000    -11.33910000      8.11120000     -0.01987520     -0.08122550     -0.05201900       8
H             -15.81060000    -12.80040000      6.55349000     -0.00576433      0.06851930      0.06693760       1
H             -17.83630000    -11.84770000      8.70216000      0.04305500      0.01348600     -0.01869030       1
O             -44.94060000      3.33119000     20.52020000     -0.03444760     -0.00545911      0.06699290       8
H             -44.79440000      2.76041000     18.92430000     -0.00154358     -0.03532900     -0.07138080       1
H             -43.58650000      4.41851000     20.63660000      0.03118320      0.04288840      0.00233071       1
O             -20.41350000    -12.86460000     33.85570000     -0.04765830     -0.10293500      0.00921709       8
H             -20.16070000    -14.88060000     34.25980000      0.00786719      0.06835020     -0.00335909       1
H             -22.17920000    -13.17570000     33.08030000      0.03229430      0.02992240      0.00722635       1
O              16.36970000     13.31840000     31.67040000      0.02642040      0.01215450      0.02096150       8
H              16.82870000     11.54500000     32.03930000     -0.01971600      0.01423080     -0.02854570       1
H              14.83180000     13.84240000     30.89680000     -0.01278900     -0.02412770     -0.01464660       1
O             -21.59430000     -1.17236000     33.47860000     -0.03218730     -0.05021550     -0.06899460       8
H             -20.50410000     -3.28107000     33.50070000     -0.02674690      0.05583010      0.01577960       1
H             -23.12340000     -1.26396000     32.05840000      0.06305960      0.00265425      0.06260300       1
O              41.90620000      4.53666000     34.25410000      0.00086037      0.00478567     -0.00152504       8
H              40.93060000      3.23103000     33.27490000      0.00995690      0.01241360      0.00325699       1
H              43.49880000      3.81373000     34.72670000     -0.00077444     -0.00369540     -0.00221644       1
O              -9.28626000    -30.93410000     -6.36695000     -0.04601470     -0.00152421     -0.05625920       8
H              -8.54109000    -31.53260000     -4.92427000      0.03329030     -0.01860200      0.04569150       1
H             -10.09430000    -32.47190000     -7.15182000      0.01470340      0.02606630      0.00443490       1
O              54.31390000    -18.18540000    -13.29640000     -0.21158200     -0.01845780     -0.11568100       8
H              55.62920000    -18.11810000    -12.40040000      0.14927300     -0.00392924      0.11923600       1
H              52.83590000    -19.34600000    -12.69860000      0.05019990      0.02424410      0.00343578       1
O              10.61390000     -0.12111900      9.72179000     -0.07129230      0.05384330      0.03213270       8
H              10.76770000      0.60595500     11.45040000      0.00956733     -0.02097410     -0.02012130       1
H               8.76586000      0.83981400      9.41269000      0.06634520     -0.02867280     -0.01212940       1
O             -35.82870000     -3.26350000     46.98580000      0.01346340     -0.02050770      0.01200900       8
H             -36.39610000     -4.01077000     45.37320000      0.02192690     -0.00177582      0.02505040       1
H             -34.88100000     -4.50760000     48.15740000     -0.02574750      0.02386860     -0.03144750       1
O              12.60030000     -9.42194000     -9.42634000      0.02301480     -0.06827740     -0.06158750       8
H              11.01860000     -9.10833000     -8.76806000     -0.04534610      0.01166640      0.02750040       1
H              12.18500000    -11.12860000    -10.53640000      0.02248860      0.05040950      0.03534570       1
O              22.75990000     18.05400000     11.73830000      0.01067690     -0.02724540     -0.06422570       8
H              21.50140000     18.12600000     12.93530000     -0.03682100      0.00989054      0.03441280       1
H              21.85220000     17.29620000     10.18910000      0.02710280      0.01825720      0.02994160       1
O              10.87970000     22.17070000     -8.56677000     -0.04515550     -0.01552830      0.00636325       8
H               9.44118000     21.31270000     -7.71666000      0.00761811      0.01961200     -0.00460253       1
H              12.17210000     21.02400000     -8.26075000      0.03520330     -0.02662290      0.00129515       1
O              22.46160000     47.40780000     30.04960000      0.00759889      0.08210400      0.02756890       8
H              20.76760000     47.38200000     30.57290000     -0.02422570     -0.00370180      0.00820473       1
H              22.81100000     45.88250000     29.39910000      0.01486860     -0.08255430     -0.03468450       1
O              -7.83763000      8.08558000      2.07301000      0.04345660      0.05971760     -0.03123520       8
H              -8.47260000      9.55818000      1.04361000      0.03290850     -0.00057335      0.01350360       1
H              -9.36369000      7.32171000      2.05647000     -0.06659440     -0.05497270      0.01996350       1
O              16.25340000    -23.68360000     13.79330000      0.05220200      0.04787840     -0.00821634       8
H              17.45440000    -22.06370000     13.62240000     -0.04777650     -0.06065590      0.00651218       1
H              14.82390000    -23.14630000     14.82510000     -0.00589278      0.00956248      0.00103547       1
O               0.48625800     16.50490000     40.45390000      0.00497426     -0.04276920      0.03634530       8
H               0.09168900     14.85140000     41.50010000      0.00044986      0.05467070     -0.04384830       1
H               0.25295400     16.53130000     38.60810000     -0.01831470     -0.00965019      0.01296480       1
O              40.12240000     42.65070000      2.24600000     -0.02674340     -0.06321720     -0.03681580       8
H              40.19720000     43.34230000      3.84387000      0.00736023      0.03292090      0.03933980       1
H              39.10390000     40.99700000      2.63391000      0.02026840      0.04593910     -0.01463780       1
O              22.07740000     13.79120000    -28.97570000      0.00371597     -0.01800150      0.01084360       8
H              22.89890000     12.44860000    -28.00310000     -0.00089300      0.00974611     -0.00648391       1
H              20.53160000     12.98140000    -29.64150000      0.01181160      0.00099886     -0.00957410       1
O             -16.50920000     41.68040000      3.79755000      0.02158850      0.00882576      0.01098130       8
H             -18.17240000     41.71360000      4.52323000     -0.01662270     -0.00377596     -0.00407650       1
H             -15.49160000     42.07560000      5.29133000     -0.00413182      0.00127704     -0.01235840       1
O              10.23990000    -29.77660000     33.32250000     -0.01356410     -0.14546000     -0.01459710       8
H              11.34720000    -31.16400000     34.12830000     -0.02254270      0.05421270     -0.01648680       1
H              10.51060000    -28.17300000     33.73460000      0.03655070      0.09542900      0.03327330       1
O               2.31256000     37.17810000      2.45295000      0.00737017      0.00858723      0.03113990       8
H               1.31195000     36.71920000      3.96837000      0.00395493     -0.00611415     -0.03244420       1
H               1.79055000     36.33090000      0.95432300     -0.00873428     -0.01256310     -0.00356894       1
O              -7.11925000    -14.04760000     11.97260000     -0.01659880      0.07240710      0.01718510       8
H              -6.88536000    -15.71480000     11.98640000      0.00128552     -0.09891950      0.00888188       1
H              -6.05686000    -13.62070000     10.64300000      0.02262430      0.02220550     -0.02373360       1
O              -4.45135000      6.36196000     18.14280000      0.07306440     -0.08705520      0.00191489       8
H              -3.06839000      6.01335000     19.65720000     -0.03643350      0.01269570     -0.04505930       1
H              -3.88045000      4.72433000     16.89750000     -0.02302560      0.06809600      0.04196460       1
O              25.99480000    -15.02430000     -1.99342000     -0.02610460      0.05563120      0.03394120       8
H              25.04060000    -16.52010000     -1.88931000     -0.01249060     -0.02740370     -0.00305428       1
H              27.34250000    -15.32720000     -3.02568000      0.04291090     -0.01027120     -0.03241460       1
O              23.54110000      5.29539000     46.27060000      0.00701417     -0.05072860      0.00643267       8
H              22.53940000      4.64006000     47.75210000      0.01301900      0.00371566     -0.01737230       1
H              24.87850000      3.94316000     45.83080000     -0.02842580      0.03829780      0.01254120       1
O              15.41710000     26.46160000     47.86830000      0.04445040     -0.08183800     -0.00612078       8
H              17.30710000     26.33040000     48.29430000     -0.04104600      0.01352810     -0.00166237       1
H              15.08840000     24.53450000     47.36870000     -0.00283014      0.05901060      0.01650950       1
O             -15.88150000     11.22910000     21.17880000      0.10389000     -0.05127720      0.01611730       8
H             -14.00700000     10.37120000     20.51930000     -0.06732900      0.04192450      0.01266470       1
H             -15.49520000     10.93300000     23.05390000     -0.02894250      0.01148370     -0.03345980       1
