192
TotEnergy=-1103.00929000 cutoff=-1.00000000 nneightol=1.20000000 pbc="T T T" Lattice="24.60215000       0.00000000       0.00000000      -0.00000100      24.60215000       0.00000000      -0.00000100      -0.00000100      24.60215000" Properties=species:S:1:pos:R:3:force:R:3:Z:I:1
O               0.53420500     14.71180000     11.87680000     -0.06447980     -0.00010733     -0.05384520       8
H               0.72932900     15.54640000     10.09870000      0.00447190     -0.01722230      0.04499880       1
H              23.17340000     14.23560000     11.76260000      0.06208890      0.01043680      0.00604874       1
O              14.33950000     23.69450000     16.27890000     -0.01018000      0.00126795      0.02506500       8
H              15.70600000      0.28480900     15.92610000     -0.01837660     -0.00564032      0.01216570       1
H              13.64350000     -0.72911900     18.05820000      0.02239130      0.00154132     -0.03354670       1
O              17.30040000     14.73050000     18.02880000     -0.16844400     -0.04205090     -0.00427251       8
H              18.86830000     14.97610000     18.16920000      0.17856400      0.01876700      0.02694850       1
H              16.89260000     15.93800000     16.79290000     -0.01332350      0.02208860     -0.02002030       1
O               1.01125000     16.54570000     16.64050000      0.09500880     -0.11663200      0.09050370       8
H               0.05545200     17.77880000     16.28790000     -0.10587500      0.14885600     -0.02741260       1
H               1.13683000     15.76140000     15.10200000      0.01104080     -0.03162100     -0.05483810       1
O               2.64716000      6.91643000      6.84639000      0.00817575      0.03124890      0.03309240       8
H               2.35698000      5.10743000      6.78856000      0.00186340      0.01203740      0.01927610       1
H               2.84465000      7.71668000      8.62916000     -0.00737313     -0.04128950     -0.04284840       1
O               4.41564000     21.11980000     20.26300000     -0.04840710      0.04084430      0.01455940       8
H               4.78187000     22.60920000     19.13920000     -0.00331923     -0.02797840      0.01738500       1
H               2.75278000     21.70520000     21.15770000      0.05532280     -0.01448480     -0.03162050       1
O               6.22315000     18.53350000     10.29310000      0.03076710      0.04712190      0.06514300       8
H               7.21757000     20.15610000     11.40880000     -0.04039190     -0.08068450     -0.04651160       1
H               6.02961000     16.97640000     11.48930000      0.01231780      0.04368420     -0.02601400       1
O              12.59940000     23.90130000     21.74470000     -0.02435500      0.00038937     -0.02650700       8
H              13.93010000      0.26231400     22.47350000      0.01241450      0.00306953      0.01577470       1
H              12.43650000     22.19850000     22.31390000      0.00832858     -0.00308682      0.00278035       1
O              22.85920000      2.30574000     17.33540000     -0.03100700     -0.04488780      0.03944000       8
H              -0.26683500      3.00293000     16.86460000      0.05810020      0.06629680     -0.05186080       1
H              23.88750000      1.31736000     18.51860000     -0.03262190     -0.01811890      0.01403540       1
O              -0.26168100     -0.15874200     21.70660000     -0.01906080     -0.08605000      0.02005150       8
H              23.71110000     22.69440000     22.61720000      0.01230510      0.07147430     -0.03602860       1
H              -0.70215700      1.21822000     22.78060000      0.00391002      0.00684262      0.01567980       1
O              20.59720000     21.42190000      6.93553000     -0.03837160     -0.16286400      0.00987679       8
H              20.77830000     22.97730000      6.53422000      0.02536530      0.16359900     -0.01920520       1
H              19.55700000     20.83280000      5.50414000      0.02118930     -0.00992331      0.01074640       1
O               8.59955000     15.67610000      6.87376000      0.13215500     -0.16935200     -0.17937800       8
H               9.69144000     16.51240000      5.68525000     -0.00470089      0.00593402      0.00821365       1
H               7.83026000     16.55410000      7.87563000     -0.12029600      0.16232500      0.16574400       1
O              21.76050000     19.44390000     23.34460000      0.06095690      0.06252290      0.09718270       8
H              22.22270000     18.19480000     22.26340000      0.01833000     -0.05244220     -0.04065700       1
H              23.48560000     19.50920000      0.08135000     -0.07696580     -0.00229635     -0.04628360       1
O               2.99471000      5.58067000     16.70590000      0.01005710     -0.02200250      0.00804082       8
H               3.10687000      7.11946000     15.76740000      0.00728300      0.00379706      0.00581635       1
H               4.15526000      5.53470000     18.16010000     -0.01840830      0.01858170     -0.01369530       1
O              21.86610000      1.87596000      7.65235000     -0.02212640      0.01075060     -0.00093671       8
H              23.50750000      1.70215000      8.47037000     -0.00723669      0.00584868      0.00544141       1
H              20.56830000      2.66135000      8.78927000      0.02871420     -0.00817471     -0.00758151       1
O               8.71093000      3.72518000     21.55600000      0.01655500     -0.06440000     -0.02241340       8
H               9.51170000      1.89568000     21.33300000     -0.02339140      0.06728480      0.01712720       1
H               9.70514000      4.64101000     22.74860000      0.01115640      0.00066558      0.01095930       1
O              16.82150000     19.36390000      9.89261000      0.03404440      0.03772660     -0.02535910       8
H              15.59970000     20.64500000      9.22600000      0.01629880     -0.02182530      0.00888364       1
H              18.54900000     19.89550000      9.01445000     -0.04430260     -0.00244787      0.02424820       1
O              14.99900000      1.97335000      7.41947000     -0.01518650     -0.06025500     -0.04144150       8
H              15.74680000      1.02055000      5.98642000      0.03113560      0.03657970     -0.00157017       1
H              13.85450000      0.46132500      7.11409000     -0.01693500      0.02683020      0.04343190       1
O              18.75430000     18.11920000      3.19083000     -0.02824350     -0.02823380      0.08145610       8
H              18.61030000     16.81870000      4.77188000      0.01125480      0.03417250     -0.05951570       1
H              19.64380000     17.32230000      1.87271000      0.01248280     -0.00598581     -0.01553910       1
O              11.21090000     11.38590000     21.47840000     -0.08438770      0.06055570      0.16385000       8
H              11.71280000     10.92120000     20.01050000      0.03068390     -0.04222380     -0.14511100       1
H               9.47811000     12.20720000     21.61760000      0.05011320     -0.02180600     -0.02147220       1
O               6.62241000     15.88830000     17.76200000     -0.12110400     -0.03356980     -0.03515620       8
H               7.32159000     16.95290000     18.86190000      0.04828600      0.05736440      0.05702980       1
H               4.64981000     16.43960000     18.07700000      0.07064310     -0.02226250     -0.02438020       1
O              11.65280000     11.62570000      8.81780000      0.03816560     -0.03620290      0.13157300       8
H              11.10700000     12.96220000      7.92298000     -0.02960840      0.06337810     -0.03939010       1
H              12.02610000     12.44660000     10.78900000     -0.00703496     -0.02972920     -0.08202350       1
O               5.55547000      1.69580000      3.14217000      0.01493200     -0.00382374      0.01371480       8
H               7.01143000      0.58390400      3.47287000     -0.01572510      0.00123500     -0.01527910       1
H               6.21296000      3.26826000      3.77525000     -0.00339393      0.00907083     -0.00133750       1
O               7.13015000      2.83157000      9.51054000      0.01954730      0.07068400      0.00072943       8
H               7.88269000      3.28939000      7.81595000     -0.01740040     -0.00543764      0.03827280       1
H               7.25850000      4.57971000     10.53210000     -0.00340736     -0.05966570     -0.03709210       1
O              18.04020000     14.70910000      7.52311000      0.00122631     -0.00038303     -0.02671990       8
H              18.81720000     13.88400000      8.91344000      0.00944921     -0.01050210      0.00869240       1
H              17.33190000     16.18530000      8.22811000     -0.01496620      0.01287560      0.01501070       1
O               9.90143000     22.38580000     12.67000000     -0.03499870      0.04565360      0.05613820       8
H               8.26373000     23.76420000     13.67530000      0.07990950     -0.05787980     -0.03627340       1
H              11.48480000     22.24440000     13.79070000     -0.04894840      0.01431010     -0.01854480       1
O              22.56310000      7.70566000     14.11220000      0.03779980      0.07136790      0.01930870       8
H              -0.25484600      7.34335000     13.53830000     -0.03924050      0.01301480      0.01476900       1
H              22.71900000      9.51840000     15.16780000     -0.00000772     -0.07995860     -0.02712100       1
O               8.15846000      7.86284000     12.59890000     -0.02017980      0.00430071     -0.00937697       8
H               8.97116000      6.72500000     13.70710000      0.01075010     -0.01574120      0.01896960       1
H               9.46547000      8.66652000     11.67830000      0.01142530      0.00683920     -0.01228400       1
O              16.21730000      4.33207000     15.46730000     -0.13514100      0.01292270     -0.03127210       8
H              17.33130000      4.21543000     16.65240000      0.10718900     -0.01049180      0.09235390       1
H              16.81740000      4.30737000     13.86050000      0.03860790      0.00384322     -0.05807130       1
O              16.32700000     11.83310000     23.30850000     -0.00053311     -0.04257270      0.02924170       8
H              15.19780000     12.21150000     21.90920000      0.00141542     -0.01303440      0.01714630       1
H              15.86780000     10.21140000     -0.26278300      0.00281802      0.05248320     -0.03786190       1
O              22.07570000     20.84670000     15.93880000     -0.04958110      0.01858720      0.03530160       8
H              21.82330000     22.05470000     17.45440000      0.00862456     -0.03624540     -0.04844690       1
H              20.25170000     20.26320000     15.51710000      0.04236490      0.01242360      0.01430770       1
O               8.07483000      6.78826000      5.29120000      0.02803760      0.03180730     -0.07728450       8
H               8.59949000      7.69781000      3.52351000     -0.00771461     -0.04358250      0.06357210       1
H               6.66053000      7.79300000      5.72552000     -0.01823250      0.00202436      0.01177030       1
O              10.19650000      3.91776000     16.23840000      0.04684720      0.00002845      0.01192370       8
H              12.00690000      3.25352000     16.13800000     -0.04450530      0.01985450      0.00026148       1
H              10.16740000      4.95466000     17.78960000      0.00078774     -0.01671410     -0.01534970       1
O              24.00960000     14.90860000     21.99890000     -0.04437630     -0.00155096      0.03572570       8
H               0.07621300     13.80830000     23.27850000      0.00331266     -0.00233213      0.00097526       1
H               0.63068100     15.18470000     20.82300000      0.04389730      0.00816942     -0.04149100       1
O              20.27740000     12.37830000     12.15050000      0.03875310     -0.05184920     -0.05669690       8
H              20.25820000     12.69370000     13.84010000     -0.01224230      0.01565150      0.06447110       1
H              21.36020000     10.74890000     12.15220000     -0.03073460      0.03493540     -0.00578753       1
O              10.85230000      7.30633000      0.56133300      0.06555620     -0.02164940      0.02212730       8
H              12.72750000      6.72038000      1.17137000     -0.07440120      0.03071430     -0.02744860       1
H              11.01960000      8.83335000     24.14280000      0.00866857     -0.00718813      0.00065666       1
O               1.12444000     11.19510000      0.81667400     -0.05363190      0.00429551     -0.00381857       8
H               2.52995000     11.72230000      1.67139000      0.04284000      0.03827690      0.05251690       1
H               2.05189000     10.17670000     -0.23533800      0.01306240     -0.04682550     -0.04999230       1
O              14.57010000      7.18449000      7.04611000     -0.02306430     -0.11364200     -0.00970914       8
H              13.60700000      8.61434000      7.35740000     -0.03373100      0.03114980      0.01409800       1
H              13.35290000      5.38006000      6.91189000      0.05658410      0.08506770      0.00983196       1
O              14.72630000      9.20839000     17.15590000      0.06761030     -0.04664450     -0.01150880       8
H              16.20670000     10.27960000     17.60550000     -0.02400590     -0.01108260     -0.00636669       1
H              15.75340000      7.42922000     16.58510000     -0.05067380      0.06409810      0.01579350       1
O              19.02380000      5.33860000     10.67230000     -0.04456830      0.02784420     -0.04563520       8
H              17.38680000      5.54657000      9.52481000      0.05437540      0.00040485      0.03338010       1
H              19.99350000      6.95617000     10.46520000     -0.02245530     -0.03413930      0.00780842       1
O              12.90820000     13.33540000     13.94420000     -0.02687890      0.00818930     -0.04776700       8
H              13.39020000     11.92560000     14.87800000      0.01715570     -0.02484720      0.02948810       1
H              13.10360000     14.89930000     14.75210000      0.00623640      0.01095240      0.01297610       1
O              22.18730000     11.62160000     18.05450000      0.03860420      0.05340590     -0.14803800       8
H              22.85170000     13.34290000     17.99940000     -0.00314567     -0.02017120      0.00968658       1
H              21.76120000     11.15200000     19.57630000     -0.02587160     -0.03239160      0.12172100       1
O               5.64059000     19.01780000      0.98568600     -0.00180989      0.01327340      0.01594880       8
H               5.86272000     17.30890000      1.48760000     -0.00106801     -0.01411150      0.00401899       1
H               5.68187000     19.09300000     23.81370000      0.00169084      0.00086898     -0.02759840       1
O               1.00787000     20.39510000      2.75137000      0.01242110      0.05840670      0.04312720       8
H               1.01607000     21.84730000      4.28822000      0.00561818     -0.06433530     -0.08049740       1
H               2.71808000     20.27510000      1.87726000     -0.02154070      0.00548999      0.02965780       1
O              16.00240000      2.77193000     23.72050000      0.05333600     -0.06740870     -0.12043700       8
H              15.96270000      3.88041000      0.34133000     -0.00736668      0.08140000      0.09414300       1
H              17.48780000      3.44627000     22.56380000     -0.03896420     -0.01681040      0.01938090       1
O              17.09060000     19.15880000     15.03390000      0.10740900     -0.12393900     -0.14255600       8
H              17.25160000     19.68240000     12.78030000     -0.01354390     -0.03204590      0.06466780       1
H              16.26650000     20.42240000     15.53760000     -0.10094300      0.14908300      0.06744420       1
O               1.63280000     17.21690000      7.22168000     -0.13215700     -0.04151560     -0.04533260       8
H               0.22158300     18.39940000      6.62587000      0.04791210     -0.02906770      0.01655520       1
H               3.01827000     17.99530000      7.71179000      0.08754350      0.06527120      0.03538390       1
O               2.24707000      1.09633000      9.02892000      0.05577870     -0.01333090     -0.04102940       8
H               2.68291000      0.00233700      7.49827000     -0.01265750      0.02792930      0.04110000       1
H               4.05807000      1.81673000      9.36791000     -0.03886030     -0.01267180     -0.00351521       1
O              23.25950000     10.92630000      6.61769000      0.01114810      0.00225350     -0.02088630       8
H               0.21115000     10.28060000      7.27415000     -0.00064770     -0.00638691      0.01317720       1
H              23.91410000     11.24730000      4.92720000     -0.01608230      0.00282863      0.00553473       1
O               4.68651000     13.84320000      3.66480000      0.06097490     -0.04738810     -0.05084520       8
H               3.58449000     14.70420000      4.59940000     -0.06947540      0.05205610      0.05045650       1
H               6.12294000     13.76570000      4.78257000      0.00786986      0.00030932     -0.00068872       1
O              16.45280000      7.13821000      2.59928000      0.13208500     -0.07293450     -0.36637800       8
H              15.73240000      7.46411000      3.82010000     -0.18784100      0.08501780      0.33975200       1
H              18.10190000      6.76164000      2.91228000      0.06149130     -0.01295060      0.01467300       1
O              21.84400000      5.70674000      3.78364000     -0.06532630     -0.15943800     -0.04738460       8
H              21.73880000      4.25166000      5.13868000      0.00585777      0.03149530     -0.03735870       1
H              22.39600000      6.93228000      4.66839000      0.05682780      0.13204100      0.08952730       1
O              12.33340000     22.17130000      7.66037000      0.20444800      0.06365620      0.17336600       8
H              11.48830000     22.18890000      9.19082000     -0.02798680      0.00401398      0.04166720       1
H              11.38270000     21.80690000      6.53866000     -0.18332700     -0.07011290     -0.21376800       1
O              11.45800000     17.62750000     21.71840000     -0.02428160      0.01855910      0.14765600       8
H              12.23920000     17.29760000     20.28080000      0.05867380     -0.02479370     -0.07739970       1
H              12.55580000     17.23170000     23.34340000     -0.03482200      0.00785109     -0.06456230       1
O               2.80471000      9.59046000     12.21360000      0.07311350      0.03509820      0.00741405       8
H               2.31146000     11.40100000     12.16290000     -0.00603411     -0.01541930     -0.00234028       1
H               4.77572000      9.88245000     12.51390000     -0.06624640     -0.02121590     -0.01142290       1
O              21.03970000      9.58904000     22.51450000      0.03983360      0.02136780      0.05250220       8
H              19.24080000     10.08590000     22.50960000      0.01876900      0.01328290      0.01740030       1
H              22.19040000     10.45760000     24.03040000     -0.06251150     -0.03521280     -0.06413750       1
O              12.94120000     16.68060000      3.11766000      0.03993540      0.05428270      0.00229286       8
H              13.87080000     18.51510000      3.44520000     -0.02784040     -0.09116840     -0.01703160       1
H              14.17860000     15.30130000      2.73335000     -0.01231430      0.03670220      0.01170500       1
O              19.28860000      4.87857000     20.18050000     -0.01674120     -0.00893575      0.00695708       8
H              20.59900000      3.96310000     19.32570000      0.01397080     -0.01135880     -0.01204530       1
H              20.19340000      6.21856000     20.96010000      0.00631500      0.01800990      0.00824043       1
O               9.50360000     22.68420000      2.43828000      0.10655900      0.03401090      0.00246712       8
H              11.42990000     22.84920000      1.73689000     -0.07580460      0.00066214      0.03236320       1
H               8.82227000     21.52230000      1.33577000     -0.02675130     -0.03330180     -0.02610930       1
O               0.74370900      3.79609000      0.38822800      0.03632870     -0.00234553      0.01256380       8
H              -0.33449900      5.24529000      1.03542000      0.03157830     -0.04028680      0.01382010       1
H               2.37008000      3.05326000      1.37046000     -0.06625960      0.03823850     -0.02340920       1
O               6.08979000      0.57260000     16.69800000     -0.00801278     -0.22958200     -0.05334320       8
H               4.98244000      1.68463000     16.65380000     -0.14718600      0.14977800     -0.01289300       1
H               7.45159000      1.19534000     17.24000000      0.15533600      0.07649280      0.05952880       1
O               4.03358000      6.83960000     21.85110000      0.01418250     -0.05563980      0.06016880       8
H               5.62406000      5.83036000     22.47730000     -0.04776400      0.03068500     -0.02414580       1
H               2.64610000      5.88567000     22.91970000      0.03543340      0.02135930     -0.03371900       1
O               6.42572000     14.15660000     12.47900000      0.00159684     -0.02077070      0.00817439       8
H               6.54638000     14.12380000     14.27520000     -0.01062260      0.01481790      0.02026900       1
H               7.86561000     13.12090000     12.18390000      0.01177720     -0.00170624     -0.02051370       1
O              15.78500000     23.42600000      2.69316000      0.08625180     -0.01154100     -0.05308130       8
H              16.87760000     21.81990000      3.05831000     -0.03323150      0.04669410     -0.01703860       1
H              16.99510000     -0.17763900      1.09231000     -0.05971470     -0.03637400      0.06816120       1
