192
TotEnergy=-1103.47536000 cutoff=-1.00000000 nneightol=1.20000000 pbc="T T T" Lattice="24.57215000       0.00000000       0.00000000      -0.00000100      24.57215000       0.00000000      -0.00000100      -0.00000100      24.57215000" Properties=species:S:1:pos:R:3:force:R:3:Z:I:1
O              22.91080000     -3.60615000    -30.64810000      0.01212100      0.00385036     -0.02981020       8
H              21.68890000     -3.33565000    -32.07620000      0.00458416     -0.00232558      0.02518910       1
H              24.18250000     -4.70137000    -31.45600000     -0.00887307     -0.00217890      0.01030000       1
O              46.47260000     46.06800000     -1.17462000      0.05295840      0.03573820     -0.03982770       8
H              47.54310000     47.64480000     -0.72023500     -0.03613400     -0.04223290     -0.00672597       1
H              47.01110000     45.70770000     -3.08473000     -0.02057970      0.00732780      0.04602200       1
O              11.39030000      5.01122000     14.74230000      0.04136180     -0.00466159      0.02592000       8
H              12.92890000      4.82368000     15.84170000     -0.03554320      0.01113200     -0.01554380       1
H              11.51710000      3.43943000     13.87890000     -0.00589653     -0.01090550     -0.01312200       1
O              -4.19016000     -9.29107000     -0.76214700     -0.06947410     -0.07980170     -0.10612000       8
H              -3.12233000    -10.19800000     -2.06776000     -0.03512100      0.01670590      0.01350480       1
H              -3.00733000     -8.65998000      0.17028000      0.09322840      0.06289220      0.09333570       1
O               5.90848000     32.99700000     19.82640000     -0.00059092      0.00948897      0.01269710       8
H               7.14344000     34.03090000     20.96480000     -0.01717950     -0.02145970     -0.03945340       1
H               6.23422000     33.38130000     18.05400000      0.01136820     -0.00186260      0.00765959       1
O              -4.85507000      9.13189000      6.23859000     -0.01788810     -0.00827426     -0.04614630       8
H              -5.43264000      7.89412000      7.37409000     -0.00020711     -0.01129390      0.03398210       1
H              -5.75014000      8.29211000      4.70592000      0.01610180      0.01910650      0.01730590       1
O              45.31610000     27.67890000     12.34230000      0.02162130     -0.02643110     -0.02014260       8
H              47.25310000     27.23430000     12.18460000     -0.06358250      0.00415314      0.00349174       1
H              44.12340000     26.33540000     11.48820000      0.04883710      0.01793740      0.02184200       1
O              -2.86783000    -33.12680000      7.47082000     -0.00297942      0.01713800     -0.05716550       8
H              -2.62602000    -32.35890000      5.67184000      0.00129840     -0.01443430      0.04983820       1
H              -4.60024000    -33.75000000      7.26734000      0.00141514     -0.00242274      0.00157831       1
O              32.30260000    -34.01820000     18.52040000      0.02553020      0.02756330     -0.00009680       8
H              31.04240000    -34.22560000     17.29670000     -0.02499230     -0.01268060     -0.02875660       1
H              32.17700000    -35.27230000     19.77780000      0.00097814     -0.01997890      0.01574980       1
O               9.37522000    -26.67930000    -25.51490000      0.02735130     -0.03631010      0.00207279       8
H              11.00850000    -27.07130000    -26.37230000     -0.01678690      0.01223520     -0.00005351       1
H               9.57556000    -27.94070000    -24.15550000     -0.00772002      0.01761810     -0.00169238       1
O              -9.32926000      1.82306000      8.32984000     -0.06199290     -0.03416620     -0.01237520       8
H             -10.13320000      2.33419000      6.53055000      0.02665690     -0.01873540      0.02929340       1
H             -10.47360000      0.35016600      8.91630000      0.01295010      0.04936120     -0.01460880       1
O             -10.82720000     27.77510000     52.98050000     -0.02564150     -0.00271067     -0.02064020       8
H             -12.66700000     28.06660000     52.78070000      0.00149907      0.00352402      0.01568310       1
H             -10.54700000     26.96530000     51.31020000      0.01856920      0.00035789      0.01272240       1
O              15.85010000    -31.93400000    -13.09010000      0.04388130      0.01687980     -0.06703280       8
H              16.33220000    -33.56440000    -13.72090000     -0.00380853      0.00283099      0.00399340       1
H              14.86310000    -32.11790000    -11.72200000     -0.04142320     -0.01542950      0.06339570       1
O              29.21350000     15.42560000     38.34380000     -0.02481700     -0.06380020     -0.05253380       8
H              27.52740000     16.02920000     38.74890000      0.00703967     -0.00391486      0.01417850       1
H              28.73550000     13.71450000     37.26040000      0.02697580      0.05916590      0.04381650       1
O              -0.20930600      0.53329200      2.29798000      0.03603820      0.06796140     -0.12124100       8
H              -0.55413500     -0.28369600      3.68363000     -0.01962770     -0.06562270      0.11317200       1
H               1.58397000      0.70264100      1.92961000     -0.00657881     -0.00602640      0.00822938       1
O             -30.41550000     23.50710000     34.63680000     -0.05291550      0.05071310     -0.02266570       8
H             -32.20680000     24.57650000     34.02380000      0.07519900     -0.02216990     -0.00204177       1
H             -31.17610000     22.28080000     35.65680000     -0.00191190     -0.02698320      0.01624140       1
O             -33.24620000     11.28380000     24.17950000     -0.02224760     -0.02240380      0.02067570       8
H             -33.68900000     10.69070000     22.52650000     -0.00505707     -0.00639160     -0.01935650       1
H             -31.87380000     12.36160000     23.99900000      0.03593170      0.02359410     -0.00397051       1
O             -20.74570000     66.55920000    -20.52000000      0.00221786      0.07490560     -0.04233500       8
H             -20.56210000     66.43500000    -18.80650000      0.00833974     -0.01562790      0.05789510       1
H             -21.10620000     65.10750000    -21.35700000     -0.00592491     -0.06365350     -0.02033720       1
O              67.90500000     20.68050000     40.21180000      0.09598400      0.17185000     -0.15544000       8
H              66.77790000     22.08390000     39.52900000      0.01304000     -0.03765960      0.02985790       1
H              67.17490000     19.66090000     41.15020000     -0.11241200     -0.13359400      0.12918400       1
O              57.90880000    -20.33410000      3.74230000     -0.00069795      0.01035930     -0.00243013       8
H              57.02320000    -20.52880000      5.33304000      0.00099874     -0.01043400     -0.00320926       1
H              56.91450000    -21.13480000      2.43558000     -0.00397882     -0.00283587      0.00374350       1
O              29.92290000     17.86270000    -15.53340000      0.03540110      0.01887680     -0.00849285       8
H              31.72920000     18.56670000    -15.45570000     -0.03971360     -0.03013690      0.00776961       1
H              29.30290000     17.30940000    -13.89400000      0.01825820      0.00140319      0.00153519       1
O             -17.20040000      8.53876000     63.66850000     -0.00606931      0.05843500     -0.01372280       8
H             -16.33640000      9.93594000     62.61730000     -0.02883640     -0.00318114      0.01374720       1
H             -15.87530000      7.42986000     63.44760000      0.03520520     -0.04680570      0.01014050       1
O               5.13668000      0.84221200      0.01996100     -0.06510490      0.06204760      0.01389010       8
H               4.39585000      1.92636000     -1.39380000      0.01662810     -0.01725330      0.02245640       1
H               6.34556000     -0.20107200     -0.60586100      0.04762420     -0.03749290     -0.02466510       1
O              45.14210000      2.88498000     24.89360000     -0.09209670      0.07816230     -0.00468200       8
H              43.98300000      4.21472000     25.93120000      0.05145320     -0.04790680     -0.02816170       1
H              46.50630000      2.24491000     25.80760000      0.03065640     -0.01119580      0.03038330       1
O              -0.20643600     60.73370000     30.57530000      0.02740140      0.06241390      0.03347110       8
H              -1.80023000     60.03220000     30.50630000     -0.04352250     -0.03822880     -0.00776923       1
H              -0.77052800     62.28870000     31.58150000      0.01797500     -0.02176640     -0.02575900       1
O               9.57334000     36.67000000     11.53030000     -0.03520880      0.00665808     -0.00250910       8
H               8.38695000     36.90330000      9.90788000      0.04903000     -0.01329700      0.02790400       1
H              11.09620000     35.77620000     11.17240000      0.00510177      0.00184824     -0.01436430       1
O             -17.69270000     20.09320000     19.38140000     -0.00894303     -0.02392350      0.01973930       8
H             -17.93150000     18.12050000     19.10690000      0.01629180      0.05830890      0.02380800       1
H             -17.21300000     20.61450000     21.18490000     -0.00365462     -0.02181610     -0.04071530       1
O              32.35490000     34.82140000     51.45400000      0.01821620     -0.03501540      0.02276320       8
H              32.91840000     33.19080000     52.41540000     -0.03423130      0.04409760     -0.03846640       1
H              30.52150000     35.05630000     51.14870000      0.01209600     -0.01319970      0.01064590       1
O              14.01820000     34.21750000     19.55240000      0.03401500     -0.05640960     -0.07854580       8
H              14.71380000     34.70730000     17.75340000     -0.01797500      0.00326940      0.06026370       1
H              14.43910000     32.11830000     19.16580000     -0.01616650      0.06012990      0.03776390       1
O               3.31578000    -25.16220000     18.01320000     -0.03491760     -0.05129170      0.05500730       8
H               1.80575000    -26.07300000     18.92910000      0.02962780      0.03608910     -0.03696200       1
H               4.56445000    -26.37300000     18.78040000      0.00321128      0.01327370     -0.02328620       1
O              -1.22539000     18.53490000      2.53722000      0.03765750      0.00977522     -0.00926636       8
H               0.66298300     18.38020000      2.89494000     -0.03815080      0.00627134     -0.00484840       1
H              -1.43615000     19.78690000      1.06465000     -0.00116948     -0.02260490      0.02366460       1
O               1.53595000      1.67634000     13.09910000     -0.00172408     -0.00947812      0.03456400       8
H               2.13365000      0.34403900     11.99800000      0.00081605     -0.00192532      0.00171709       1
H               1.69389000      1.01111000     14.88830000      0.00023833      0.00862056     -0.03998440       1
O             -33.87280000     53.95050000    -29.78350000     -0.00040996     -0.00706877     -0.01737110       8
H             -32.48220000     53.77730000    -30.98820000      0.00939334      0.00679261      0.00359522       1
H             -33.44510000     52.97510000    -28.29380000     -0.00796969      0.00556857      0.00547976       1
O               6.98668000     51.20730000    -15.98050000     -0.00413189     -0.04354350     -0.01855010       8
H               6.00758000     52.35810000    -15.07300000     -0.01339760      0.03522080      0.02453100       1
H               5.77030000     49.74600000    -16.05640000      0.01850670      0.00894342     -0.00636857       1
O             -35.07830000     39.73310000      2.34152000      0.06303700      0.02765880      0.07082360       8
H             -34.93760000     38.53240000      1.15679000      0.00215330     -0.06178020     -0.05953350       1
H             -36.58850000     40.51920000      2.28896000     -0.06798220      0.03512750     -0.00029430       1
O              17.62940000     35.56080000     15.73090000      0.00070242      0.07927020      0.07643870       8
H              16.86790000     35.86800000     14.24860000     -0.03902170      0.02887060     -0.07718340       1
H              18.10790000     33.97110000     15.57570000      0.04155520     -0.10646300      0.00131651       1
O             -17.10380000    -12.10850000      7.29226000     -0.07480650     -0.00915835      0.00493343       8
H             -16.87110000    -12.88550000      5.65957000      0.00390796      0.00288061     -0.00229155       1
H             -19.00990000    -12.59250000      7.84405000      0.06698700      0.01419400     -0.01398110       1
O             -45.96640000      3.67647000     20.88430000      0.02588570     -0.03176010     -0.04703990       8
H             -45.71060000      2.17892000     19.56600000     -0.01322350      0.03314370      0.03421500       1
H             -44.62420000      4.84955000     20.34450000     -0.01316930      0.00299230      0.01002550       1
O             -20.66210000    -13.64270000     35.00430000      0.00000298     -0.07226000     -0.00184267       8
H             -20.65210000    -15.71650000     34.96560000      0.00557430      0.06551310      0.01111840       1
H             -22.21610000    -13.34640000     34.17500000     -0.02174150      0.00529469     -0.00965410       1
O              17.18540000     13.60700000     31.25570000     -0.06302680     -0.01611600     -0.03980030       8
H              17.96600000     11.87500000     31.13570000     -0.00937847      0.01822440     -0.00789671       1
H              15.54210000     13.73700000     29.92730000      0.07034340     -0.00053898      0.04462860       1
O             -21.07070000     -2.17132000     33.20710000     -0.06420720      0.06805460     -0.03351500       8
H             -20.26610000     -3.74187000     33.15810000      0.00602581     -0.04021360     -0.00268186       1
H             -22.66520000     -2.12879000     32.00170000      0.04765890     -0.01108750      0.04185820       1
O              41.47800000      6.46252000     35.15510000      0.06898520      0.16560400      0.07675680       8
H              40.60860000      5.43610000     34.33090000     -0.10745400     -0.13904500     -0.09817970       1
H              42.76260000      5.67417000     36.01650000      0.03769330     -0.02662390      0.02138940       1
O              -8.58846000    -32.12740000     -5.66949000      0.05242200      0.02718560      0.08664540       8
H              -7.77268000    -33.28110000     -4.41444000     -0.00913814      0.02615940     -0.02041660       1
H              -9.18425000    -33.21440000     -6.81388000     -0.04021250     -0.05269090     -0.06490030       1
O              53.75430000    -18.84160000    -12.93110000     -0.09455670     -0.08834310     -0.03261950       8
H              54.33530000    -17.93980000    -11.63150000      0.05345390      0.06201240      0.06997890       1
H              52.42920000    -19.95560000    -11.86840000      0.03627970      0.02431860     -0.04964320       1
O              10.67040000     -0.47885800     11.40230000     -0.00914532      0.06647690     -0.07302850       8
H               9.91320000     -1.08250000     12.85880000     -0.02020740     -0.01694340      0.02813700       1
H               9.46172000      0.86885500     10.46820000      0.02925440     -0.04853890      0.03028180       1
O             -34.79520000     -3.24751000     46.49940000      0.01473930     -0.03142980      0.02718500       8
H             -34.06020000     -4.69117000     45.62360000     -0.01130060      0.01163080     -0.02262810       1
H             -34.22030000     -3.97261000     48.18070000     -0.00485735      0.03129080     -0.00631290       1
O              12.11720000     -9.19306000     -9.36572000      0.01545300      0.25496600      0.32212100       8
H              10.68400000     -9.28301000     -7.97516000      0.03760270     -0.01010630     -0.04674850       1
H              11.94670000    -10.16430000    -10.45570000     -0.05942120     -0.24572800     -0.26861400       1
O              21.96940000     17.92260000     12.35990000      0.01704090     -0.03230260     -0.04741850       8
H              20.45470000     18.58800000     12.99350000     -0.02381930      0.01098080      0.00990153       1
H              21.56880000     17.13370000     10.62110000      0.01579820      0.02417730      0.03997340       1
O              10.21730000     20.62630000     -9.67303000      0.01074060     -0.07327260      0.03916730       8
H               8.82756000     20.63500000     -8.37992000      0.02454400     -0.00241818     -0.01543440       1
H              11.03830000     18.69140000     -9.44414000     -0.03192680      0.07533550     -0.01413450       1
O              22.93820000     46.91140000     31.20520000     -0.01211060      0.04722450      0.06516010       8
H              21.72910000     47.36930000     32.73900000      0.02964410     -0.02197200     -0.05582270       1
H              22.27510000     45.60340000     30.22100000     -0.01581160     -0.02353500     -0.01113020       1
O              -7.65819000      6.89274000      2.75819000     -0.01179920      0.02868690     -0.01536490       8
H              -7.91157000      8.47340000      1.61573000     -0.00959968     -0.03998440      0.02612570       1
H              -9.25218000      6.10502000      3.50188000      0.02730730      0.01405510     -0.02482470       1
O              14.76090000    -25.08620000     15.64330000     -0.07404910     -0.04817130     -0.06457760       8
H              12.91560000    -25.89220000     15.78040000      0.06525570      0.02263520     -0.00004307       1
H              15.26210000    -24.38630000     17.11920000      0.00872875      0.02426280      0.06173440       1
O               0.45836400     16.63050000     41.03540000     -0.02219760     -0.00121379      0.02830360       8
H              -0.56203200     15.86620000     42.59480000      0.01733640      0.01754040     -0.06820890       1
H              -0.51937100     17.11130000     39.46350000     -0.00824976     -0.01626700      0.03147070       1
O              41.81560000     44.65170000      1.52275000      0.04478800     -0.03510330     -0.04802410       8
H              43.42260000     44.45790000      0.26195100     -0.05813900      0.01122120      0.05051500       1
H              41.27380000     42.88770000      1.85028000      0.00957706      0.02093770     -0.00160985       1
O              21.74000000     13.30650000    -29.96290000     -0.00144631     -0.03399670     -0.03650740       8
H              23.14820000     11.91050000    -29.79240000     -0.04053390      0.03531220     -0.01315820       1
H              20.42920000     13.01480000    -31.44700000      0.04996720     -0.00324527      0.04928060       1
O             -14.38340000     43.64670000      3.65231000      0.09100160      0.01737570      0.00780859       8
H             -16.04580000     43.36240000      3.60297000     -0.08672940     -0.01833450      0.00495381       1
H             -13.87760000     43.83800000      5.46463000     -0.01008870     -0.00341352     -0.02241870       1
O              10.81380000    -29.89330000     33.22740000      0.00206699     -0.07320270     -0.02116520       8
H              11.95210000    -31.00110000     34.15270000     -0.00536757     -0.00366944     -0.01160330       1
H              11.02980000    -28.45270000     34.09960000      0.00267396      0.08256730      0.04038370       1
O               2.65823000     36.75130000      1.51702000     -0.04729330      0.00327315     -0.02334810       8
H               1.18282000     36.77530000      2.76840000      0.03300070     -0.00697987     -0.02349070       1
H               1.88625000     36.58220000     -0.26897600      0.02055710     -0.00186895      0.04855570       1
O              -9.55446000    -13.16600000     11.13070000      0.00094088     -0.03086830     -0.00123025       8
H              -9.15693000    -15.01350000     11.01570000     -0.00182116      0.02340380      0.00131073       1
H              -9.01862000    -12.52330000      9.50290000      0.00093502      0.00371631     -0.00099103       1
O              -4.98896000      5.67008000     16.62040000      0.00145169     -0.02579910     -0.03546710       8
H              -3.76709000      5.45921000     18.00140000      0.00029819     -0.00073497     -0.00933348       1
H              -4.47700000      4.55176000     15.05890000     -0.00655171      0.02417650      0.04004880       1
O              25.71190000    -14.30060000     -3.59836000     -0.01294840     -0.05607180     -0.03268950       8
H              24.50220000    -15.80040000     -3.72768000      0.02018170      0.03152730      0.01353230       1
H              27.19530000    -15.11380000     -4.53790000     -0.01189340      0.02321080      0.02552190       1
O              22.59580000      5.34858000     45.27070000     -0.03721160     -0.01043190      0.03461090       8
H              21.49200000      4.53744000     46.68180000      0.02945340      0.01809040     -0.02666490       1
H              24.22760000      4.64772000     45.58640000      0.01576080     -0.00628991     -0.00250748       1
O              15.56450000     26.37420000     48.35390000     -0.11472200     -0.05807050     -0.06301750       8
H              17.22300000     26.66840000     48.40320000      0.09649660      0.00094374      0.00667417       1
H              15.18240000     24.87080000     47.03090000      0.01881260      0.04249330      0.05639160       1
O             -15.12310000     11.07990000     21.78350000     -0.03123510      0.01515190      0.02564710       8
H             -13.51940000     10.78560000     20.99420000      0.01578950     -0.01319410      0.00369650       1
H             -15.35070000     10.73370000     23.61520000      0.01872530      0.00384291     -0.01715240       1
