192
Lattice="22.83168 0.0 0.0 0.0 22.83168 0.0 0.0 0.0 22.83168" Properties=species:S:1:pos:R:3:force:R:3 TotEnergy=-1102.59476 cutoff=-1.0 nneightol=1.2 pbc="T T T"
O        4.97650000      12.32540000      21.48060000       0.03211530      -0.06230680       0.01860080
H        5.91310000      12.17490000      19.93080000       0.02317970       0.01292590      -0.02113410
H        3.18454000      12.04870000      20.74830000      -0.00327243      -0.00653767      -0.00390643
O       12.26490000      11.72000000       1.36910000      -0.05041970      -0.07273420      -0.01864890
H       12.48550000      11.16520000      22.48114800       0.00889094      -0.00586493      -0.00767985
H       13.24760000      13.04490000       1.69588000       0.05494070       0.07932190       0.01992530
O        6.60127000      12.97590000       7.02861000       0.02991810       0.01104210       0.03493060
H        7.71767000      12.75190000       8.62745000      -0.01937420       0.00770519      -0.05075250
H        7.74788000      12.41500000       5.42119000      -0.03152120       0.00095363       0.03591160
O        9.18408000       3.80996000      14.54510000      -0.00849190      -0.04612040      -0.07559050
H        9.31069000       1.96715000      13.38750000      -0.00072620       0.08096460       0.05478950
H        8.71875000       5.28063000      13.28190000       0.00511362      -0.04666430       0.02856730
O       16.48450000       7.76876000       3.60602000       0.05722850      -0.07413810       0.05953410
H       16.14180000       9.47555000       3.30518000      -0.00062354       0.01984050       0.01003820
H       17.94540000       7.39314000       5.14058000      -0.06815270       0.02749640      -0.07354390
O       22.82345900      17.33520000       0.81897900      -0.01080940       0.01601280       0.03214710
H        1.54784000      16.86950000       0.00861900      -0.00759039      -0.00874957      -0.01419440
H       21.28929000      16.41090000       0.38618500       0.01844850      -0.00363880      -0.00634815
O       18.44410000      11.56740000      10.45770000      -0.04834240       0.02105810       0.04190010
H       20.02190000      12.42750000      11.33730000      -0.01321340      -0.02029640      -0.03377140
H       17.16920000      11.47960000      12.01340000       0.01581610      -0.01476300      -0.05089480
O        1.08522000       3.83539000       2.26938000       0.00640941       0.01629220      -0.03394400
H       22.68205900       3.29693000       4.37456000      -0.00150796       0.00874171      -0.01467490
H        0.70425400       2.29914000       1.39117000       0.00697604      -0.00305203      -0.00398865
O       18.11690000       2.61293000      18.71200000       0.06149570      -0.04326210      -0.03015120
H       19.69590000       1.75221000      19.40010000      -0.04230990       0.02731820      -0.01374450
H       17.31840000       3.33013000      20.09200000      -0.01273900       0.01709720       0.04309970
O        4.78693000       1.46690000      18.21210000       0.03325710       0.01388520      -0.01640390
H        4.68539000      22.56535600      17.56820000       0.01444620       0.01555980      -0.00711934
H        6.22217000       2.38410000      17.27660000      -0.02871370      -0.02808750       0.01731530
O        3.11583000      16.16760000      15.57870000      -0.01330650      -0.01842290      -0.02619470
H        1.83645000      16.08840000      14.19710000       0.01449450       0.00306169       0.03246900
H        4.49017000      15.07250000      15.00970000      -0.01363870       0.00154664       0.00735586
O        5.29564000       5.99162000       5.78526000       0.02211250      -0.00548183       0.03127180
H        7.07683000       5.80618000       6.29375000      -0.01313490       0.00634791      -0.01116370
H        5.04595000       5.85935000       4.01541000      -0.00624543      -0.00917672      -0.00019084
O       19.68730000      13.92540000      21.81180000       0.01328730      -0.01472230       0.00311775
H       19.26260000      14.54600000      20.12920000       0.01229300      -0.01512610       0.01062580
H       20.85880000      12.43100000      21.88700000      -0.03240970       0.03182490      -0.01872710
O       15.94830000      16.42450000      13.85960000       0.01658230      -0.00938527      -0.07293200
H       16.18780000      16.37630000      11.86050000      -0.01268560       0.01061040       0.06945670
H       16.62280000      17.94600000      14.59180000      -0.00079329       0.02047660      -0.00120927
O        1.76417000       7.22239000      13.06700000       0.01183200       0.03320020      -0.04542050
H        1.25145000       6.17528000      11.67190000      -0.00002300      -0.00693037      -0.00089546
H        1.46392000       6.30015000      14.52760000      -0.00830601      -0.02598080       0.04027880
O        4.96643000      17.15810000      10.01930000       0.07056090       0.16099000      -0.24368300
H        5.45500000      15.94930000       8.68490000       0.00047774       0.01539820       0.00009724
H        4.66148000      16.25810000      11.18070000      -0.06454080      -0.17937700       0.24229200
O        1.16854000       4.46942000      17.19830000      -0.00281180      -0.00190909       0.00042816
H        2.44174000       3.20434000      17.65360000       0.00266315      -0.00323830      -0.01155740
H        0.87092200       5.24029000      18.80940000      -0.01425010       0.01196080       0.00919859
O        9.53169000      17.65780000      21.07040000      -0.09742680       0.12313900       0.13941500
H        7.32134000      18.15320000      21.40920000       0.09803250      -0.02397950      -0.02072350
H        9.50848000      16.51620000      19.87530000      -0.00892982      -0.08800680      -0.09655400
O       18.59920000       6.23937000      11.42620000       0.00333522      -0.07292630      -0.00433446
H       18.74640000       4.58928000      12.32070000       0.01470890       0.03850990       0.03078970
H       17.83820000       5.00965000      10.24400000      -0.01150280       0.04739930      -0.02282410
O       20.89790000      15.17860000      14.53670000      -0.01979140       0.03152720       0.04240130
H       21.76790000      14.10710000      13.40890000       0.00288152      -0.02247690      -0.01399570
H       19.08040000      15.44870000      14.34540000       0.01226190      -0.00714118      -0.00667138
O        8.74586000      21.07060000       6.49504000      -0.04616080      -0.02230340       0.02725400
H        6.91792000      20.61290000       7.05107000       0.05307620       0.01800190      -0.02620310
H        9.13640000      20.33300000       4.87071000      -0.00789108      -0.00048187      -0.00340556
O       10.38690000      13.46730000      10.18060000       0.00265409       0.01614890       0.00525069
H       11.32600000      12.22500000      11.13380000       0.01057190      -0.00686027       0.00547574
H       10.82150000      15.20490000      10.79380000      -0.00074808      -0.01722640      -0.01192480
O        1.48476000      11.37030000      18.09410000       0.03028260       0.02596060       0.01887750
H        1.10054000       9.71743000      18.71370000      -0.02865130      -0.00730767      -0.00498500
H        0.20120400      12.55880000      17.50650000       0.00051589      -0.02020420       0.00196905
O       11.38280000      18.24390000      10.17070000      -0.00266944       0.02373430       0.04289500
H       10.24170000      18.68000000       8.83273000      -0.00899856       0.01643310      -0.00229464
H       11.31460000      19.62040000      11.54110000      -0.00393810      -0.01977670      -0.02699510
O        3.95670000      16.71830000      21.31330000       0.05146880      -0.02546960       0.02720490
H        3.49830000      16.55860000      19.54970000       0.00632069      -0.00909650       0.00014080
H        4.95033000      15.06840000      22.08030000      -0.04049910       0.07144990      -0.04198300
O       18.37290000      19.35960000       0.64414700      -0.08036300       0.06487680       0.05341230
H       16.97520000      20.68470000       1.70761000       0.06345480      -0.05796100      -0.04785380
H       19.85710000      19.87740000       1.54733000       0.00766013      -0.00143217      -0.00388257
O        4.04479000       8.71028000       1.97173000       0.04894540      -0.07709040      -0.16251100
H        3.65230000       8.41497000      22.40342500      -0.01405900       0.00269459       0.09873390
H        5.83720000      10.81580000      22.69427800      -0.04473780       0.03000010      -0.00398683
O       17.16730000      21.97380000       5.62929000      -0.03991620       0.05590900       0.00040391
H       18.52540000      21.41820000       6.61430000       0.01971030      -0.01839740       0.01631790
H       16.58920000       0.57602000       6.72567000      -0.00112316      -0.02795080      -0.02729300
O       17.86570000      11.83520000       5.49697000      -0.03597660       0.04354870       0.04951660
H       18.19020000      12.40850000       7.31915000       0.07813620       0.03220170      -0.09614160
H       19.45710000      11.12110000       5.16827000       0.04815330      -0.03204570      -0.00182755
O       12.91200000       4.73394000      17.18000000      -0.14818900       0.11367400       0.03497810
H       14.16010000       3.85327000      16.78170000       0.16417000      -0.10511200      -0.04213000
H       11.89490000       4.77145000      15.56390000       0.00057746      -0.00167182       0.03201340
O       15.45270000      17.11740000       8.33902000       0.09651690      -0.03944920       0.00865241
H       15.12130000      16.47470000       6.74880000      -0.00337485      -0.01302150      -0.04514020
H       14.04740000      17.83210000       8.97138000      -0.07967620       0.03718050       0.03361880
O        2.97031000      22.63270000       0.05182000       0.01096820      -0.00830009      -0.06012190
H        3.51818000       0.78862000      21.21050000      -0.01359760      -0.04052410       0.05602840
H        2.67194000      20.82110000      22.45560000       0.00562243       0.03735460       0.00157523
O        6.33089000      22.77570000      11.03930000      -0.02883350       0.00418927      -0.00950719
H        4.50968000       0.39102000      10.75820000       0.02636850       0.00017630       0.00523467
H        7.14112000       1.23112000      10.03960000       0.00114980      -0.00518535       0.00529247
O        0.47286900      11.98780000      12.17720000      -0.00523281       0.04608920      -0.04796110
H        0.80274900      10.27060000      12.49960000       0.00746556      -0.04163790       0.01382190
H        1.04582000      12.32570000      10.33550000      -0.00384990      -0.00745547       0.02378100
O       11.81680000      21.40390000      19.05480000       0.01336650       0.03409310      -0.02810580
H       13.52450000      20.89060000      19.05570000       0.01775580      -0.00224160       0.00026669
H       10.98880000      20.09930000      19.93920000      -0.02538760      -0.03316600       0.01347540
O       11.80250000       0.89586800       0.59753900       0.00688038      -0.02922530      -0.02939900
H       12.39450000      21.98264100       1.10942000      -0.01989380       0.03483150      -0.00638121
H       11.35190000       0.64987900      21.54508000       0.01483600       0.00496791       0.04413970
O        5.93983000      19.88610000      15.74080000       0.08413520       0.05139200      -0.02769770
H        6.16254000      20.08100000      13.89560000      -0.02264900      -0.00265291       0.02127380
H        4.44802000      19.13700000      16.08560000      -0.06181970      -0.04184080      -0.00222538
O        1.03789000      20.61680000      11.10410000      -0.01902890      -0.01137900      -0.00982150
H        2.49971000      19.56290000      10.68590000      -0.02114510       0.00219393      -0.00352059
H       22.14969500      20.00390000      10.37010000       0.04424530       0.00629109       0.01924110
O       15.95330000       1.83216000      12.32260000       0.00029026      -0.02019500       0.00567236
H       15.06890000       0.81197800      13.55980000       0.00900141       0.00473909      -0.00443401
H       17.44680000       0.83461700      12.01370000      -0.00388953       0.00057381       0.00177292
O        8.43860000      10.65760000       3.75921000       0.00706391      -0.03039100      -0.04043080
H        7.24954000       9.21128000       3.48831000       0.02361910       0.03004900       0.00955794
H       10.02750000      10.74410000       2.63467000      -0.01836840       0.00091511       0.01640460
O       13.93000000       5.17297000       9.10233000       0.00471603       0.01006430       0.00582146
H       13.49130000       4.07362000       7.67291000      -0.00750794      -0.00651336       0.03304010
H       13.67190000       4.47746000      10.83080000       0.00662397       0.00337109      -0.04054430
O       21.66660000       0.19300400      14.84790000      -0.02352300       0.08113980       0.04284730
H       22.71750000      22.27300400      13.59580000       0.02034770       0.00579969      -0.01790820
H       21.83990000       2.19496000      15.30110000       0.00861514      -0.07965480      -0.02300190
O        2.67635000       3.21442000       9.33245000       0.01389850       0.01310500       0.02252320
H        1.23170000       2.51531000       8.44616000      -0.00715477       0.00447474      -0.01201940
H        3.29242000       4.56319000       8.24811000      -0.00499962      -0.00841625      -0.00130737
O       17.30490000      21.23630000      16.18950000      -0.01833700       0.01833110       0.04432210
H       17.00540000      22.32840000      17.84690000       0.01712920      -0.02786930      -0.05982830
H       18.88270000      22.00740000      15.48180000      -0.00602201      -0.00787810       0.01160170
O       13.93720000       9.41075000      20.14190000      -0.01077660       0.00769181      -0.05224210
H       13.53170000       7.90712000      19.22210000      -0.00829488      -0.05998340       0.02274170
H       13.86270000       9.96605000      18.34700000       0.00838416       0.05037390       0.01198880
O       19.62310000      19.46100000       8.89184000       0.08698980       0.02028940      -0.02957340
H       18.19980000      18.39320000       8.93636000      -0.02256430      -0.02060850      -0.01547360
H       20.92820000      19.13410000       7.40346000      -0.03982130      -0.00870118       0.03696680
O       13.35870000      12.78500000      15.88070000       0.00414810       0.01421310      -0.00431950
H       14.12990000      14.42590000      15.35400000      -0.01124560      -0.03033730       0.00449765
H       13.11230000      11.55060000      14.28130000       0.00722545      -0.01072230       0.01162100
O        1.76160000      12.86440000       7.58949000      -0.05290330       0.03022740      -0.00589894
H        1.28922000      14.63660000       7.19458000      -0.00069422      -0.01418480       0.00087444
H        3.52864000      13.01660000       7.49285000       0.05157390      -0.01252730      -0.00792690
O        9.70059000       7.73269000       8.27514000      -0.00827534       0.03811860      -0.02592510
H       11.34740000       7.03101000       8.47355000       0.02465530      -0.02141170       0.00628887
H       10.07880000       9.34485000       7.44377000      -0.01111100      -0.01875630       0.00554308
O        9.20606000      14.43790000      17.83950000      -0.02115360      -0.01081600       0.02151910
H       10.80500000      13.57690000      17.55640000       0.01235400      -0.00564420      -0.01769170
H        8.33877000      14.44680000      16.26150000       0.00349751      -0.00777204      -0.00992522
O       13.40120000       9.29885000      12.73820000      -0.08891670      -0.00513040      -0.05042000
H       17.11940000      12.01100000       8.34146000      -0.03032220      -0.04567070       0.11677900
H       11.62930000       8.59349000      11.64140000       0.08656390       0.03393850       0.05326740
O       16.73360000       2.95370000       0.49566300      -0.03025030      -0.00209925       0.00917835
H       16.59420000       4.08278000       1.90892000       0.00692750       0.00441889       0.00043252
H       14.94140000       2.39698000       0.33306600       0.01562980      -0.00038564       0.00112400
O       10.66610000      21.85510000      13.87270000      -0.00367154      -0.01895330       0.01052770
H       11.65410000      21.81390000      15.47070000      -0.02117710      -0.00095758      -0.01138830
H        8.98487000      21.17340000      14.32500000       0.03153910       0.01276430       0.00384275
O        3.92521000      22.61677000       5.49781000       0.02498630       0.07195630       0.01135420
H        2.99561000       0.53131400       4.02393000       0.01913930      -0.00830680       0.02377130
H        4.83611000       1.43613000       6.36616000      -0.04785790      -0.06823170      -0.03840580
O       18.51100000       8.97629000      21.85450000      -0.02618530       0.02004670      -0.01810670
H       17.38010000       7.91817000      22.81890000       0.00554918      -0.00246846       0.00230331
H       17.32520000       9.90302000      20.72160000       0.01324970      -0.01918850       0.01804320
O        1.21076000      18.26500000       5.87577000       0.01813080       0.02669630      -0.02651960
H        1.58486000      18.02490000       3.91489000      -0.02409020       0.01757720       0.06372600
H        1.94368000      19.99450000       6.53797000      -0.00888788      -0.04431660      -0.03318830
O       11.42000000       2.45976000       6.01061000      -0.00091332       0.00443157      -0.03992320
H       11.91850000       2.89638000       4.26803000      -0.01118840      -0.00993014       0.01901890
H       10.13820000       1.13689000       5.81855000       0.00918274       0.00220867       0.00677449
O       15.48930000      15.48270000       3.32260000       0.00432370       0.00902693      -0.01696800
H       16.54650000      16.42840000       2.12891000      -0.01004470       0.00834704       0.00457428
H       16.65490000      14.20250000       3.81986000       0.00270524      -0.00944497       0.00458195
O       22.03110000       2.76987000       6.10565000      -0.04708290      -0.02440210       0.04982820
H        5.32162000       6.31918000       0.89599300      -0.04667920       0.06125030       0.03807860
H       20.30170000       2.12102000       6.26716000       0.02744360       0.01271770      -0.01644660
O        6.93219000      12.42180000      13.78390000       0.00850128       0.01473820      -0.04779080
H        7.40761000      13.46520000      12.20290000      -0.00197148      -0.03577570       0.04278860
H        7.76358000      10.77490000      13.44330000      -0.01174630       0.02073610       0.00583665
O       22.72090000       7.23369000      21.61670000       0.01861790      -0.01090040      -0.01514080
H        0.17422000       5.72877000       0.04022000      -0.00453917       0.01610940       0.00519315
H       20.91420000       7.55654000      21.10710000       0.02017650      -0.00814168       0.01842170
O       11.63490000      18.97130000       2.89524000      -0.02552750      -0.00485481      -0.03044700
H       10.83230000      17.54560000       1.97248000       0.01910100       0.01958670       0.01361840
H       12.32840000      18.50340000       4.46022000       0.01057440      -0.01440590       0.00954855
O       22.25518800       8.86923000       4.63564000      -0.03588770       0.06201150      -0.06965190
H       21.44382000       9.88821000       2.57689000       0.04903810      -0.05038420       0.08404610
H        0.83936900       9.90993000       5.33391000      -0.02407860      -0.00815720      -0.01881990
O        7.10280000       7.04679000      12.01540000       0.14181400      -0.04101350       0.15671300
H        5.62887000       7.10295000      12.67880000      -0.14667500      -0.00373340       0.07752510
H        6.85422000       7.47320000      10.54990000      -0.01732010       0.06320570      -0.23447800
