192
Lattice="22.70673 0.0 0.0 0.0 22.70673 0.0 0.0 0.0 22.70673" Properties=species:S:1:pos:R:3:force:R:3 TotEnergy=-1102.03818 cutoff=-1.0 nneightol=1.2 pbc="T T T"
O       18.14750000      21.82240000       3.98062000       0.00711445       0.01808060      -0.01884590
H       18.20120000      21.63960000       2.15980000       0.00034991       0.00275488       0.00852789
H       19.49270000      20.84980000       4.69412000       0.01363210      -0.01748960       0.00726033
O       19.20610000       5.51484000      13.07500000      -0.00494407       0.03124730      -0.00915160
H       17.78210000       6.24515000      11.97520000       0.02153390      -0.03443040       0.02855680
H       18.62270000       4.09366000      14.07790000      -0.00650907       0.00487427      -0.00694140
O        6.35392000      21.60810000       1.34871000      -0.03868190      -0.00217446      -0.06900730
H        5.81989000      21.66040000      22.18469700       0.01573620      -0.00144585       0.04859180
H        4.77504000      21.22230000       2.22772000      -0.00058745       0.00726720       0.00290133
O       13.71620000      21.16270000      12.60450000      -0.38411600      -0.04556710      -0.18582200
H       12.85310000      19.55730000      12.72210000       0.01609100      -0.00087823      -0.00044550
H       11.84290000       0.19487000      11.70630000      -0.02498370       0.04042950      -0.00154630
O       20.07300000       9.35009000      17.07990000      -0.02404950      -0.02456480      -0.03905900
H       19.66810000       7.95930000      15.66840000       0.01283140       0.02964530       0.04425390
H       18.64840000       9.28761000      18.30120000       0.01733740      -0.00112118      -0.01957550
O        1.81453000       4.96599000       0.96084900       0.05160110       0.02782480       0.00327769
H        3.47045000       5.80645000       1.46313000      -0.03258040      -0.02668010      -0.01140770
H        0.60745000       5.32953000       2.19031000      -0.01287820       0.00966138       0.01919460
O       11.49090000      18.55650000       7.12138000      -0.03896210       0.08834690      -0.03333710
H       10.89480000      20.11570000       5.81989000       0.01211240      -0.08265060       0.03995770
H       10.14290000      18.54960000       8.43943000       0.02066570      -0.00314252      -0.02554260
O       14.00530000       4.44377000      19.84060000      -0.01134240      -0.00779118      -0.01860610
H       15.85480000       3.80695000      19.49120000      -0.00173496      -0.00700537       0.00079575
H       13.17530000       3.59230000      21.22580000       0.01593380       0.00056085       0.00900836
O       18.65300000      19.53450000      18.67370000      -0.05603010      -0.09072640       0.07578650
H       19.03820000      17.75390000      21.09880000      -0.00948006       0.06038950      -0.08117960
H       19.82340000      20.71510000      18.17390000       0.04586640       0.02939470       0.00330063
O       14.28440000       0.24927000       6.06119000       0.00627428      -0.03655670       0.06402070
H       13.98340000      21.72750000       7.54673000      -0.00418718       0.03242010      -0.04743640
H       16.20390000       0.00967000       5.67775000      -0.03188870      -0.00166884      -0.02104060
O       20.39400000      14.20440000      15.07930000       0.04055380      -0.04773920      -0.05224260
H       21.06420000      14.26610000      13.20420000      -0.04405050      -0.00147928       0.04444770
H       20.07510000      12.26850000      15.41850000       0.00667531       0.02640800       0.00570568
O       10.40250000       1.58841000      11.13530000       0.00743991      -0.01244700       0.00602607
H       11.01410000       2.24365000       9.51640000      -0.00738364       0.00224156       0.01142240
H        9.16527000       3.79547000      12.70590000      -0.00605948       0.03694260       0.01326650
O        8.51810000      17.52090000       2.98638000       0.06274210      -0.06807410       0.03105930
H        7.54310000      18.71540000       2.29280000      -0.03854100       0.05421590      -0.03392190
H        4.65307000      14.05760000       2.15479000       0.06183270       0.05485760      -0.01227990
O       20.25930000       9.52535000       5.35044000       0.00437085      -0.03403350      -0.06266420
H       19.60200000       8.16005000       3.89082000       0.00857181       0.05752050       0.05902870
H       19.02330000       9.73982000       6.65637000      -0.01488650      -0.00887696      -0.00485640
O        8.34465000       5.79620000      13.67950000       0.06638340      -0.05857010      -0.04242490
H        7.05954000       5.46768000      14.84870000      -0.04064920       0.00026433       0.03054630
H        9.71828000       6.56433000      14.69850000      -0.00354173       0.00426885      -0.00860383
O        5.32092000      13.97180000       6.45696000      -0.01579650      -0.01738250      -0.00502148
H        4.10158000      12.95410000       5.53386000       0.00468228       0.00780100       0.01352380
H        4.54447000      14.00620000       8.17830000       0.01329130      -0.00413615       0.00023630
O       13.35140000       9.22850000       2.51661000      -0.04267430      -0.02970310       0.01238050
H       13.92130000      10.86180000       2.57907000       0.00927373       0.04999150       0.00640935
H       14.85600000       8.23012000       2.31952000       0.01822010      -0.01695030      -0.00459340
O        0.66593200       2.79255000       7.49909000       0.02631190       0.01448350      -0.00314907
H        0.24776100       1.12471000       8.14378000       0.01841560       0.01419960       0.00576525
H        2.39932000       3.50615000       7.96515000      -0.03994950      -0.02500390      -0.00083977
O       12.99770000       1.13195000       1.55196000      -0.01839950      -0.08762050      -0.00229668
H       12.79600000      21.99532700       0.47855700       0.00797327       0.07942770       0.05020250
H       12.98470000       0.49042700       4.08688000       0.02763830      -0.00282800      -0.05660810
O        3.48273000      19.10650000       7.78391000       0.03091000      -0.02086390       0.00285180
H        5.59309000      21.05460000      10.30950000      -0.13742600      -0.01393830      -0.31100300
H        4.56181000      17.62340000       7.30591000      -0.02167330       0.03676660       0.00542643
O        6.85850000       5.98921000       4.99015000       0.04840140       0.02654410       0.05566640
H        8.38634000       7.64781000       5.09170000      -0.05070360      -0.03726730      -0.00069130
H        7.67515000       4.26953000       4.75159000      -0.00129324       0.01655520      -0.00881162
O       18.57060000       3.37238000      18.49190000      -0.01530660      -0.00583841       0.00041666
H       19.82420000       2.97171000      19.75000000      -0.00504362       0.00018408      -0.01075280
H       18.60550000       1.20834000      16.15260000       0.00596965      -0.00589889      -0.02193810
O        8.63693000       9.13244000       0.38864700      -0.00325031      -0.00034636      -0.01425640
H       10.02770000       8.93980000       1.58580000      -0.00655117       0.00018908      -0.01101700
H        8.03259000       7.29363000      22.49835200       0.00530712       0.01069850       0.01049300
O        1.05769000       1.83634000      20.15540000       0.02292730      -0.04099290       0.01437560
H        0.75311500       2.97637000      21.55980000       0.01304810      -0.00254414      -0.00539241
H        2.63257000       0.76250300      20.72060000      -0.05647280       0.03949250      -0.01704200
O       11.90200000      15.17490000      22.55450000       0.05544370       0.01564940       0.02176120
H       10.63220000      14.60040000      21.53930000      -0.03089300      -0.01559990      -0.03055970
H       11.09580000      16.23320000       1.10917000      -0.02698600       0.01436670       0.01909310
O       15.61820000      17.73250000       9.25388000       0.09297720      -0.00155727       0.06682770
H       14.14040000      18.37510000       8.61754000      -0.06575910       0.02880210      -0.02209550
H       16.29950000      18.78980000      10.73230000      -0.02225670      -0.02657520      -0.04662430
O        9.05266000      17.74290000      16.70490000       0.01534670       0.01420750      -0.01733880
H        9.95888000      17.24310000      18.21360000      -0.00457634       0.01180500      -0.00429184
H        9.84859000      19.28720000      16.02350000      -0.01000220      -0.02140890       0.02256870
O        6.02401000      20.80350000      11.74330000       0.11723900       0.04878620       0.27322300
H        4.64455000      21.33260000      12.97580000       0.00525204      -0.00427918      -0.00585671
H        7.00322000      22.53680000      11.35710000       0.00942819      -0.02999920       0.04264160
O       21.34050000      13.16290000       8.97357000       0.03539080       0.00950413      -0.03933600
H       21.35000000      11.98990000       7.52711000       0.00458264       0.01452750       0.01173450
H       20.16500000      12.41540000      10.00590000      -0.03558740      -0.01816690       0.02765620
O        3.28254000      11.20030000      16.68110000      -0.04492900       0.05591150       0.05740620
H        3.65187000      12.82600000      17.92680000      -0.01148080      -0.04598470      -0.04505720
H        1.76322000      10.34980000      17.49000000       0.02486660       0.01533210      -0.01533410
O       20.13300000       4.60131000       4.30524000      -0.08445460      -0.02882520      -0.03073850
H       19.04780000       3.13782000       4.70360000       0.01088530       0.01292920       0.00006447
H       21.56400000       4.21339000       5.18752000       0.06901030      -0.01759560       0.04259890
O        4.32947000      12.51910000      11.25720000      -0.02758090       0.00623220      -0.00971984
H        0.98404700      13.03510000      14.89640000       0.02895820      -0.00359872       0.00133620
H        2.73772000      12.21130000      10.34220000       0.01900780      -0.00424768       0.01578660
O        9.91222000       1.00624000      17.67390000       0.08654040      -0.00626634       0.04448530
H       11.32450000      22.29936500      18.34570000      -0.04321060       0.03999930      -0.01597720
H       10.99510000       2.68935000      18.11650000      -0.02857250      -0.04337620      -0.00575869
O        5.97258000       6.99727000      17.92150000      -0.04977690       0.03800340       0.01120470
H        4.85025000       8.64761000      18.15800000       0.04442700      -0.05772530      -0.01942650
H        5.01577000       5.68968000      18.81230000       0.01256880       0.01422820      -0.00255811
O       13.56700000      20.03800000      19.89970000       0.04011190       0.01359650       0.00280026
H       15.44800000      20.60260000      19.88270000      -0.03522620      -0.01326850      -0.01279450
H       13.75870000      18.23040000      20.17610000      -0.00907890       0.00766742       0.00078805
O        7.20359000       4.53784000      22.15630000       0.00288383      -0.02207500      -0.00164348
H        8.27708000       3.42306000       0.46017000      -0.01585010       0.02006410      -0.01241160
H        5.70166000       2.55099000      20.65750000       0.01509340      -0.00263247      -0.01390640
O        2.03615000      21.38480000       4.15254000      -0.00419100       0.01498080      -0.02753730
H        2.85840000      20.44720000       5.66428000      -0.00093428      -0.01711660       0.03201400
H        1.26321000       0.23427000       4.59156000       0.00948664       0.01022480       0.01243120
O       17.27990000       7.01022000       1.68530000       0.06337170      -0.07440790       0.04483880
H       17.01880000       7.19047000      22.67006800      -0.00083515       0.00065712      -0.03642910
H       18.67120000       5.00254000       2.14512000      -0.03762000       0.07881520      -0.01321010
O       13.14730000      13.88820000      15.51910000      -0.01955230       0.00677132       0.00986077
H       11.56350000      14.77960000      15.75210000       0.00470819      -0.00705303       0.00096366
H       13.84010000      13.74150000      17.16740000      -0.00034230       0.00168830       0.01641830
O        1.32329000       3.70982000      12.97890000      -0.05543100      -0.01090700       0.02233690
H       22.25661200       4.51462000      12.81340000       0.04545550      -0.00839677      -0.00329830
H        2.68320000       4.56091000      12.20800000       0.00886311       0.02280010      -0.01867060
O        4.97283000       5.63037000       9.88915000       0.07120020       0.00389082      -0.04984250
H        6.63148000       6.51107000      10.01730000      -0.03268600       0.00186706       0.03075330
H        6.56933000       5.69454000       7.75887000      -0.05418750      -0.00769789      -0.03098590
O       11.76010000       8.98348000      14.19830000      -0.01921290      -0.04848790      -0.04202220
H       10.91790000       9.63918000      12.57530000      -0.00242629      -0.00640119       0.03203040
H       12.36510000      10.50890000      14.70540000       0.02706210       0.06695670       0.02821660
O        8.79170000       1.57982000       4.05834000       0.08079390       0.03972090       0.02602780
H        7.61579000       0.99999800       2.93568000      -0.06484120      -0.03876540      -0.03064830
H       10.15480000       1.66802000       2.65081000       0.00013670      -0.00199922       0.03314880
O       22.59780000      15.68070000      22.38970000       0.00246891      -0.00312050       0.05116570
H        0.34307000      16.60870000       1.35097000      -0.01549360      -0.01848210      -0.05582600
H       20.79200000      15.96890000      22.20950000       0.01325700      -0.00720674       0.00408663
O       12.88570000      12.86490000       6.77347000      -0.03409230       0.13352900       0.01990550
H       13.07170000      14.92020000       7.52259000      -0.01440080      -0.09367500      -0.04547650
H       14.25660000      12.01980000       7.44045000       0.03987960      -0.02875190       0.01440060
O       16.45700000      10.57640000       8.85117000       0.00682875      -0.03004810       0.04414600
H       16.30270000      12.00670000       9.99107000       0.00853835       0.01325750       0.00325498
H       16.23960000       9.32985000      10.28620000       0.00265710       0.00585142      -0.03533570
O        5.54059000       0.87606900      19.40160000       0.05867330       0.01034490       0.02091110
H        4.55285000       0.75055000      17.75320000      -0.00017750       0.00015768       0.01683720
H        8.10417000       0.79155600      18.92270000      -0.02145700       0.00886135      -0.01578570
O       22.38446500      20.36510000       0.33980800      -0.02706050       0.00608412      -0.01503120
H       22.26493900      21.54080000      21.63208000       0.00482426      -0.00196054       0.01557370
H        0.35826300      21.13660000       1.89714000       0.00783523      -0.00633986      -0.01028150
O        9.43352000      12.07480000      11.43920000      -0.01495020      -0.00750316      -0.01552280
H        7.56768000      11.75440000      10.94260000       0.01933380       0.01053450       0.00525721
H       10.62440000      12.02500000      10.04320000      -0.01715970      -0.00370830      -0.00951487
O        2.88153000       0.04297000      15.78110000       0.03139840      -0.04731220      -0.01535990
H        2.11104000       1.53947000      15.16040000      -0.02697200       0.02333400      -0.02231800
H        2.02051000      21.15710000      15.40630000      -0.00999499       0.00679878       0.00280548
O       14.73990000       6.43413000      11.49210000      -0.00252033       0.02194580      -0.01918180
H       14.18590000       6.73349000       9.66052000      -0.00130257      -0.01193810       0.05089470
H       14.03300000       7.57023000      12.95430000      -0.00519535      -0.02255290      -0.04555910
O       10.82670000      16.93930000      11.27170000      -0.01718900      -0.02168100       0.01340860
H       10.14680000      17.05750000      12.94720000      -0.00976951      -0.00582544       0.00279158
H       10.11800000      15.24950000      10.74400000       0.00879025       0.02335660       0.01537430
O       17.18260000      14.85720000      21.59960000      -0.01577530      -0.04979610       0.04260120
H       15.92040000      15.49300000       0.28307000       0.03216410      -0.03538900      -0.04457840
H       17.40220000      12.74490000      21.73680000      -0.01506710       0.09273370      -0.00054616
O       16.23670000      14.00290000      12.41340000       0.01851650       0.00971099      -0.01313270
H       15.56060000      15.37340000      11.33860000       0.00621788      -0.01040950       0.01743680
H       16.20490000      14.50630000      14.20370000      -0.00558121      -0.00369071      -0.03524480
O        0.44720800      18.31280000      13.46770000      -0.01024110      -0.06603820       0.05630100
H        1.25053000      17.63270000      12.04130000       0.01887320      -0.00062002      -0.03183210
H        0.22498200      15.63700000      14.62360000       0.01445040       0.08183070      -0.01439270
O       15.63380000       9.17799000      20.12710000      -0.02951560       0.09886740       0.01257040
H       13.83240000       9.86840000      20.26160000       0.04976190      -0.02259880       0.00218770
H       15.54350000       7.55729000      19.55190000      -0.01969260      -0.06721270      -0.01939930
O        6.11761000      13.66540000       0.69528800      -0.07543330      -0.03960190       0.04136210
H        7.64531000      12.54190000       0.29355700      -0.01440660      -0.00852328       0.04032540
H        4.82676000      12.23990000       1.66366000       0.02476400      -0.03783580      -0.05476030
O        9.04410000      10.21590000       5.71046000       0.00146829      -0.00077537       0.00466013
H       10.68570000      11.12960000       5.85111000      -0.01874700      -0.00280821      -0.00237929
H        7.67731000      11.38410000       6.15840000       0.00861903      -0.00096842      -0.00253268
O       10.56450000      11.85400000      19.07260000       0.00817844      -0.00096699      -0.01067550
H       11.34810000      10.64020000      17.96640000      -0.01661770       0.00202489       0.00301373
H        9.99913000      10.92340000      20.51900000      -0.00987185      -0.02282770       0.01332780
O       18.73980000       0.29397000      14.37220000      -0.26364300       0.05378510       0.08612700
H       20.21950000       0.06467000      14.05540000       0.25372600      -0.04126030      -0.05497860
H       15.00700000      21.31970000      13.23850000       0.36968500       0.04676960       0.19175500
O        4.12258000      16.23540000      19.72010000       0.00975021      -0.02507400      -0.01457060
H        2.33472000      16.26140000      20.13460000       0.00790274      -0.00002312       0.00914603
H        4.98049000      14.93680000      20.76270000      -0.02140710       0.03019490      -0.01015640
O       19.90690000      18.57230000       7.04870000      -0.02888570      -0.01098060       0.01418110
H       20.77430000      17.13480000       7.77537000       0.00366132       0.00818637      -0.00461474
H       18.09260000      18.34980000       7.67066000       0.04079190      -0.00129678      -0.01660730
O       13.04870000       4.82476000       6.58642000       0.00168231       0.10644500      -0.03766620
H       12.68050000       3.30150000       5.73167000       0.00035054       0.00270502      -0.01305660
H       13.04340000       6.49438000       5.21303000      -0.00468310      -0.07802130       0.05328030
O        1.83516000      11.63400000       2.28831000      -0.07547720       0.00049943      -0.02568930
H        0.76295000      11.01730000       3.73620000       0.01833130       0.00436091      -0.01770560
H        0.30430500      12.01820000       0.90540200       0.06889450       0.00001628       0.04988710
