192
TotEnergy=-1103.40020000 cutoff=-1.00000000 nneightol=1.20000000 pbc="T T T" Lattice="24.44634000       0.00000000       0.00000000      -0.00000100      24.44634000       0.00000000      -0.00000100      -0.00000100      24.44634000" Properties=species:S:1:pos:R:3:force:R:3:Z:I:1
O              24.95370000     -2.41740000    -37.89430000     -0.00333135     -0.04748140      0.02245780       8
H              23.53160000     -3.45861000    -37.04420000      0.03215190      0.02712200     -0.01242960       1
H              26.54570000     -3.44603000    -37.66100000     -0.03211060      0.01896670     -0.00455830       1
O              51.62340000     49.86830000      0.46941300      0.01102220     -0.02605860     -0.00660484       8
H              53.13540000     50.29160000     -0.52350900     -0.00966367     -0.00671080      0.00957485       1
H              51.36830000     47.97450000      0.56791900      0.00409465      0.03194370      0.00086536       1
O              14.29360000      1.06532000     18.09900000     -0.01753530     -0.00582120      0.05234090       8
H              13.80620000      2.61566000     19.34270000      0.01870880     -0.04223360     -0.03366840       1
H              14.67750000     -0.54264500     19.07470000     -0.00247605      0.04650330     -0.01140400       1
O              -3.21390000     -9.62754000     -2.63997000     -0.03848830      0.08746180      0.00375913       8
H              -2.02131000    -10.75510000     -2.08668000      0.04373520     -0.03254540      0.02611120       1
H              -2.88707000     -7.81241000     -1.85523000     -0.00773345     -0.04745400     -0.02560710       1
O               4.12817000     35.69340000     19.44110000     -0.02646120     -0.01700740     -0.03602580       8
H               3.24987000     34.40340000     18.29560000      0.03079620      0.03157410      0.03685580       1
H               5.10570000     34.82200000     20.68340000     -0.00242412     -0.01636870      0.00701908       1
O              -8.17502000     11.34370000      6.96805000      0.02673580     -0.00526523      0.06937540       8
H              -9.17048000     12.80160000      7.32216000     -0.00735664      0.01204960     -0.01990940       1
H              -8.22661000     10.52910000      5.43355000     -0.01249140     -0.00868896     -0.05021830       1
O              43.82390000     29.13930000     14.07060000     -0.00519949     -0.05523400      0.00338239       8
H              45.19470000     28.54620000     12.74780000     -0.03418160      0.00269693      0.03484980       1
H              43.00820000     27.57430000     15.04220000      0.03594550      0.04830090     -0.04626720       1
O               1.50752000    -36.78840000      6.09614000      0.05159800     -0.02084180      0.01530590       8
H               2.97962000    -38.00540000      5.26555000     -0.05911620      0.03311160      0.04672720       1
H               1.67211000    -36.52140000      8.10191000      0.01279180     -0.01472710     -0.06831030       1
O              33.14310000    -34.89400000     17.38650000      0.00692028     -0.04361270      0.05475240       8
H              32.06750000    -35.58950000     18.76860000     -0.01473930      0.02716930     -0.02661570       1
H              34.32170000    -36.30460000     17.68310000      0.00659292      0.01678880     -0.02979430       1
O              10.53290000    -28.81940000    -24.91510000      0.01634960     -0.01961030      0.02303430       8
H              12.01310000    -29.59370000    -24.01960000     -0.00959258      0.01126190     -0.01870990       1
H               9.29611000    -29.87810000    -24.06100000     -0.01172970     -0.00100438     -0.00335480       1
O             -12.39390000      5.44667000      8.10914000      0.04412160      0.02312280     -0.02603440       8
H             -11.07440000      6.14212000      9.30448000     -0.03954910     -0.01055140     -0.00367346       1
H             -13.95940000      4.94861000      8.78235000     -0.00931425     -0.00504486      0.03206530       1
O             -10.31140000     28.97430000     49.59450000      0.07062890     -0.00795926      0.00195060       8
H             -11.25130000     27.64830000     50.31280000     -0.03486210     -0.01975490      0.01167870       1
H              -8.59052000     28.03310000     49.69650000     -0.02747200      0.02228510     -0.00901399       1
O               9.48839000    -30.86660000    -17.12430000      0.10021100      0.00495134     -0.04433160       8
H               9.01617000    -31.76750000    -18.57380000     -0.02239720     -0.01414350     -0.02258030       1
H               8.24156000    -30.67900000    -16.00740000     -0.07617630      0.00197080      0.05653280       1
O              27.35730000     13.58960000     35.43710000     -0.12876100      0.06759480     -0.00951025       8
H              25.91840000     13.78310000     36.73400000      0.04419350     -0.01399160     -0.02892590       1
H              28.72180000     12.82980000     36.03440000      0.07525760     -0.05477050      0.04062080       1
O               3.47673000      3.05096000      5.47796000      0.02278440     -0.02071920      0.00136725       8
H               4.42127000      2.04194000      6.74276000     -0.01013630      0.00709721     -0.00348440       1
H               3.71841000      1.99767000      3.96825000     -0.01090570      0.01067880      0.00147075       1
O             -33.89240000     25.58010000     33.52690000      0.02653220      0.00683785     -0.04186880       8
H             -32.24910000     25.49260000     32.42170000     -0.04257080      0.00554970      0.02786410       1
H             -34.98600000     26.86360000     32.70740000      0.01747480     -0.01005760      0.01208330       1
O             -32.38830000     13.04800000     22.78770000      0.01912330     -0.01231870     -0.03812610       8
H             -32.47760000     12.06540000     21.11360000     -0.01947350      0.01556540      0.02903170       1
H             -30.68070000     13.79170000     22.45000000     -0.00767926      0.00050732      0.01494710       1
O             -21.40940000     64.59860000    -22.11010000     -0.02871710     -0.02957920      0.00956272       8
H             -21.68710000     63.30010000    -20.61950000     -0.00271476      0.03429440     -0.03776720       1
H             -22.62480000     64.06850000    -23.45250000      0.02191920     -0.00623034      0.02732890       1
O              69.46740000     19.90440000     37.37330000      0.04202200     -0.05250480      0.02039510       8
H              68.00570000     20.86380000     37.27790000     -0.04193250      0.03822530      0.00979561       1
H              69.33060000     18.67920000     38.78500000      0.00241242      0.02486070     -0.01241040       1
O              60.08810000    -12.34670000      0.56191400     -0.01058340      0.00060976      0.01195300       8
H              59.09450000    -13.43000000     -0.50596400     -0.00434306     -0.00551220     -0.00184971       1
H              61.55390000    -11.83910000     -0.33953900      0.01045750      0.00138940     -0.00600994       1
O              29.79500000     18.41580000    -13.64350000      0.01970080      0.03326450     -0.00303735       8
H              31.40330000     18.17790000    -12.64370000     -0.02887500     -0.01044100      0.00061377       1
H              28.76720000     16.94450000    -13.76420000      0.00172358     -0.01736460      0.00393141       1
O             -15.07630000      5.96535000     65.73310000      0.00197276     -0.01756860      0.07970890       8
H             -14.31470000      5.65124000     67.71630000     -0.02638150      0.01170440     -0.07687800       1
H             -16.93540000      6.03910000     65.78740000      0.00787634     -0.00281719      0.01001280       1
O              10.60240000      0.50637800      2.11245000      0.01935270     -0.01595610      0.03470140       8
H              11.01700000     -0.48687800      3.69223000     -0.00739818      0.03732780     -0.00071055       1
H              10.30550000     -1.02643000      1.24429000     -0.00776053     -0.01119840     -0.03710040       1
O              43.71820000      0.92600000     30.25090000      0.06401660     -0.03546870     -0.01782920       8
H              45.36140000      2.09614000     29.98440000     -0.04793210     -0.02973980      0.02443750       1
H              44.58450000     -0.94994300     30.50470000     -0.01641540      0.06367800     -0.00216923       1
O              -3.36401000     61.97620000     32.41230000     -0.01142850     -0.00877337     -0.05180660       8
H              -5.10290000     60.91070000     32.14370000      0.05518270      0.03755160     -0.00838788       1
H              -2.19345000     62.22450000     30.75820000     -0.04575310     -0.02690980      0.06198020       1
O               2.11319000     31.88150000     12.29290000     -0.20364100     -0.03546810      0.12217100       8
H               3.31054000     31.79860000     11.30380000      0.18655000      0.00424054     -0.14705400       1
H               1.01400000     30.45060000     11.63390000      0.01054110      0.02967780      0.02069330       1
O             -13.03450000     18.75940000     19.04910000      0.01316460      0.03523150      0.03020610       8
H             -13.80630000     17.21900000     18.78500000     -0.02163010     -0.04474620     -0.01659840       1
H             -13.41010000     19.03200000     20.88310000      0.01143420      0.00255098     -0.01201410       1
O              24.97380000     36.06880000     48.84920000      0.00002760     -0.01180130     -0.06484310       8
H              23.81260000     34.95590000     49.83590000      0.02298040     -0.00021135     -0.02505180       1
H              25.38760000     35.42790000     46.94530000     -0.01942220      0.01012580      0.08031890       1
O               7.70131000     27.34780000     22.86080000     -0.00911234      0.01140760     -0.00396528       8
H               8.31115000     25.97710000     21.84010000      0.00459928     -0.00575331     -0.00633984       1
H               8.85477000     27.42790000     24.24490000      0.00089735     -0.00630636      0.00760184       1
O               4.99167000    -24.26340000     16.33110000      0.09787780      0.04843840      0.00367896       8
H               3.98161000    -25.46030000     16.95820000     -0.06431900     -0.05681190      0.02521870       1
H               6.55761000    -24.59140000     17.46710000     -0.02555640      0.01159710     -0.03027420       1
O               0.70324700     20.77110000      1.80083000     -0.02498310     -0.02049930      0.05769220       8
H               1.56574000     19.08320000      1.84786000     -0.01269630      0.02601950      0.00775412       1
H              -0.36981800     20.90360000      3.61021000      0.04406940     -0.00178002     -0.05580090       1
O              -1.26642000      3.03867000     10.89550000      0.03245490     -0.02529510      0.00106755       8
H              -0.86881900      3.52547000      9.05090000     -0.02023430     -0.01847820      0.04695940       1
H              -0.47055300      1.36390000     11.51660000     -0.01900200      0.04498060     -0.03033210       1
O             -35.74560000     54.40250000    -28.40450000     -0.00691036     -0.02051850      0.04256720       8
H             -34.80010000     55.72110000    -29.14520000      0.01312220      0.02034000     -0.01082180       1
H             -35.25300000     54.32580000    -26.46470000     -0.01553280     -0.00558975     -0.03912410       1
O               9.98591000     58.55990000    -18.60570000      0.01097600      0.01761960     -0.03743950       8
H              10.96960000     57.15500000    -17.77330000      0.00248611      0.01691750     -0.02952420       1
H              10.68010000     59.42650000    -20.27540000     -0.01235250     -0.04112680      0.06196470       1
O             -40.89220000     40.63200000      2.28417000      0.07637860     -0.04825040     -0.00648464       8
H             -39.80530000     39.00720000      1.84737000     -0.02360560      0.05379370      0.01259020       1
H             -42.42380000     40.14960000      1.54968000     -0.04464820     -0.00108313     -0.00274307       1
O              15.40140000     34.72980000     18.63310000     -0.00253587     -0.00167943     -0.04629740       8
H              16.99140000     34.36420000     17.65190000     -0.00419975     -0.00362047      0.01290760       1
H              14.24980000     35.07150000     17.16450000      0.00853406     -0.00258692      0.02973750       1
O             -17.79830000    -14.95240000     10.39070000      0.08518550      0.01160530      0.04966570       8
H             -16.43950000    -14.94490000      9.01994000     -0.03410490      0.00634265      0.03344160       1
H             -16.60150000    -14.70030000     12.17780000     -0.04434670     -0.01191490     -0.08002500       1
O             -45.18720000      5.42535000     16.61950000      0.05227350     -0.06676830      0.01047270       8
H             -44.31390000      3.56197000     16.48390000     -0.04547710      0.05853370      0.00685901       1
H             -45.70270000      5.84916000     14.93180000     -0.00443103      0.00675087     -0.01249060       1
O             -19.73660000    -16.27440000     28.65850000      0.08651250     -0.03029750      0.02593220       8
H             -17.90190000    -16.11560000     29.43040000     -0.04700480      0.02025350     -0.02019790       1
H             -19.65730000    -18.13730000     29.00460000     -0.03172190      0.01645840     -0.00784513       1
O              14.76160000     17.43620000     25.59630000     -0.01135400      0.00743920     -0.04152580       8
H              15.12540000     17.44070000     27.35010000      0.00914125     -0.02248530      0.01950060       1
H              15.17000000     15.96060000     24.50770000      0.00281433      0.01181840      0.02892320       1
O             -18.31230000     -0.16733900     33.15840000     -0.11941000     -0.02598350      0.05654000       8
H             -16.69460000     -0.14984400     32.69620000      0.09204380     -0.01319120     -0.02247880       1
H             -18.75700000     -1.72439000     34.21630000      0.01996530      0.04163400     -0.03387180       1
O              39.59660000      8.15653000     35.78900000     -0.04832760     -0.10637300      0.12406800       8
H              40.66990000      6.74467000     36.50430000     -0.00784362      0.03457390     -0.01922290       1
H              40.24500000      9.00122000     34.54310000      0.06486330      0.06769050     -0.10006000       1
O              -4.59608000    -32.27130000     -7.31109000     -0.02470090      0.02530020     -0.07781970       8
H              -4.03827000    -33.24340000     -6.03479000      0.03248620     -0.03799840      0.07301300       1
H              -4.49338000    -33.45700000     -8.72295000     -0.00116365      0.00481373     -0.00028700       1
O              58.34630000    -21.18160000    -12.29000000     -0.11539000     -0.01274930      0.03677430       8
H              58.10200000    -20.76270000    -10.44900000      0.02790910      0.00052291     -0.02815250       1
H              56.28320000    -21.57800000    -12.43060000      0.08757090      0.00841504     -0.01179840       1
O               9.28273000     -0.80864600     19.38930000      0.07095020      0.01056930     -0.03293560       8
H              11.17220000     -0.42449200     18.57330000     -0.06766450      0.00304638      0.02429670       1
H               9.53756000     -2.59388000     19.65050000     -0.00877404      0.00016046      0.00077951       1
O             -32.55960000     -3.06040000     47.12990000      0.01315060      0.00974463     -0.03392400       8
H             -32.19720000     -3.80667000     45.39460000     -0.01548820      0.01354160      0.03443530       1
H             -33.24890000     -4.27889000     48.28910000      0.00075527     -0.01336390     -0.00322816       1
O              10.95950000    -14.55110000     -9.74839000      0.03504880     -0.03584150     -0.01922030       8
H               9.92610000    -15.95440000     -8.77257000      0.04156030      0.01758460     -0.02387530       1
H              12.51750000    -15.42010000    -10.74630000     -0.06267960      0.02658270      0.03313050       1
O              19.65960000     18.32240000      8.59140000     -0.01880650      0.02661270      0.00456512       8
H              19.92910000     18.38690000     10.44670000      0.00517951      0.00527384     -0.01070600       1
H              19.87450000     16.67380000      8.06838000      0.01055770     -0.05529960     -0.00685175       1
O              16.48730000     20.27630000     -6.98729000     -0.02369750      0.05183710      0.00692068       8
H              14.96230000     19.39660000     -6.79636000     -0.02640990     -0.01644090      0.00201397       1
H              17.78020000     19.14720000     -6.71042000      0.04133850     -0.03943370     -0.00208093       1
O              22.48240000     45.88910000     30.83730000     -0.01627490     -0.04631200     -0.00033061       8
H              21.45380000     44.22830000     31.07940000      0.01272830      0.03901900     -0.00167533       1
H              23.24270000     45.80530000     32.53630000      0.01106230      0.01832200     -0.01031570       1
O              -7.27746000      9.30063000      1.97706000      0.01647390     -0.06219600      0.05164820       8
H              -7.71515000     10.49970000      0.76927300     -0.01431950      0.02007750     -0.03907620       1
H              -7.92448000      7.54364000      1.78625000     -0.00323112      0.03897360     -0.00860789       1
O              17.17360000    -25.15200000     13.63650000     -0.05604620     -0.00466728      0.08280090       8
H              15.84830000    -24.28850000     12.70840000      0.00914083     -0.00208514     -0.00860957       1
H              16.14300000    -25.45130000     15.49550000      0.05353670      0.01060110     -0.08451380       1
O              -2.67705000     13.20550000     37.63440000      0.00660591     -0.02429270     -0.03131160       8
H              -2.87279000     11.57290000     38.55870000      0.00141662      0.02009720     -0.01958900       1
H              -2.56137000     12.85480000     35.67800000     -0.01035020      0.00613535      0.05098100       1
O              45.84320000     44.67380000     -1.76912000     -0.05524760     -0.00268046     -0.01738000       8
H              46.93120000     45.28050000     -0.51638500      0.02804150      0.00909758      0.02508240       1
H              44.13390000     45.46350000     -1.41786000      0.03381440     -0.01847310     -0.00808089       1
O              24.10680000      7.21191000    -29.31550000     -0.17455500      0.04649660      0.14529700       8
H              25.29830000      6.70995000    -30.27880000      0.11352000     -0.07917000     -0.08557920       1
H              23.09330000      5.98217000    -28.03950000      0.05877370      0.02519170     -0.05147250       1
O             -13.77380000     47.42230000      6.78431000     -0.03252520      0.05782190     -0.03770440       8
H             -12.46280000     48.05190000      7.75198000      0.04229330     -0.00434012      0.02924640       1
H             -14.12100000     45.72700000      6.63876000      0.00322928     -0.05651100      0.01385210       1
O               9.26905000    -31.42240000     38.05600000      0.03669950      0.01317320      0.05466390       8
H               9.22672000    -33.10990000     39.06530000     -0.00032267      0.05332520     -0.01951870       1
H              10.10050000    -29.97250000     39.16770000     -0.03195640     -0.06136230     -0.03577020       1
O              -1.38968000     28.87310000      6.28331000     -0.01590410     -0.00250296     -0.02092560       8
H               0.24877900     28.11610000      6.06491000      0.01839250      0.00063334     -0.01596620       1
H              -1.73169000     29.87370000      4.73904000      0.01080070      0.00790982      0.01530730       1
O              -9.34493000     -7.99037000      6.66001000     -0.14090600     -0.01588430     -0.01481290       8
H             -11.46570000     -7.43060000      7.32246000      0.09272240     -0.01559140     -0.02152500       1
H              -8.13091000     -7.09615000      7.50757000      0.03201560      0.03856790      0.03695810       1
O              -4.57206000      8.94278000     16.48160000     -0.00025638      0.01800600      0.01423100       8
H              -3.50547000      8.79535000     17.96400000      0.00682729     -0.00216539     -0.00657308       1
H              -4.57658000      7.24731000     15.75930000     -0.00153882     -0.00851365     -0.00892789       1
O              22.37830000    -16.77020000      2.31113000     -0.07183240      0.09512560      0.07053370       8
H              22.18590000    -18.06180000      1.25148000      0.00006596     -0.07700550     -0.07213990       1
H              20.44290000    -16.07100000      2.43291000      0.06488180     -0.01831100     -0.00369578       1
O              22.84700000      3.32631000     47.82160000     -0.03350060     -0.00451725      0.00286244       8
H              21.26070000      2.32402000     48.36800000      0.04209360      0.01579470     -0.01361320       1
H              24.43140000      2.37635000     47.95960000     -0.01216550      0.00023679      0.00776225       1
O              18.57060000     25.82830000     49.59120000     -0.02800850     -0.03876980      0.01420090       8
H              18.87990000     25.19690000     51.40930000     -0.00854010      0.01751460     -0.02161540       1
H              17.54790000     24.43360000     48.76070000      0.02282200      0.02366660      0.01116090       1
O             -17.34680000      8.63696000     23.49360000     -0.13902400      0.30395400      0.14262300       8
H             -16.75220000      7.32398000     23.13710000      0.13063900     -0.30454100     -0.08281830       1
H             -17.85070000      8.53843000     25.43670000      0.00428797      0.00194646     -0.06377390       1
