192
Lattice="24.39735 0.0 0.0 0.0 24.39735 0.0 0.0 0.0 24.39735" Properties=species:S:1:pos:R:3:force:R:3 TotEnergy=-1103.36593 cutoff=-1.0 nneightol=1.2 pbc="T T T"
O       23.92110000      19.40128000      20.42720000       0.04222150       0.00696183      -0.00409451
H       22.21270000      19.59503000      20.53720000      -0.06006740       0.01335040      -0.00744689
H       24.15390000      18.14496000      21.67190000       0.01932670      -0.02003110       0.01127740
O        2.22210000      22.99925000       4.28509000      -0.03801690       0.14689400      -0.07569880
H        2.42600000      21.56935000       4.96669000       0.02874270      -0.15498100       0.07844830
H        1.71060000      22.65395000       2.55520000       0.01086300       0.00848824       0.00264443
O       10.32060000       1.97121000      10.35080000       0.04145010      -0.01366920       0.04736640
H       11.64880000       2.94783000      11.36990000      -0.03183560      -0.01036740      -0.02842470
H       10.57320000       0.22464300      11.12860000      -0.01053580       0.02129520      -0.02221460
O       18.85191000      14.70700000       1.05337000      -0.00161809      -0.01044430       0.01613520
H       19.49605000      14.65739000      23.76232700       0.00258050      -0.00053553      -0.01109650
H       17.55567000      15.98075000       1.22278000      -0.00125145       0.00892207      -0.00039487
O        8.38725000       5.80835000      20.17210000       0.01471750      -0.02521790      -0.05396420
H        9.29748000       6.94585000      21.11750000       0.00590118       0.04243860       0.05283600
H        9.78519000       5.73135000      18.91880000      -0.02600080      -0.01832560      -0.00203434
O       20.71074000      11.37210000      12.72890000       0.01128930       0.01718700       0.02289730
H       19.44898000      10.50210000      11.80760000      -0.01381390      -0.01159160      -0.02144440
H       21.68738000      12.36010000      11.56580000       0.00151711       0.00160430      -0.00474124
O       21.69055000       0.52715000      12.64500000       0.12167100      -0.00343014      -0.03407290
H       23.79175000       1.16115000      13.13390000      -0.08436040      -0.01194460       0.00834572
H       22.28935000       0.15855000      10.80650000      -0.04519680       0.00995574       0.03657580
O        1.11385000      20.16360000      11.32890000       0.04414080      -0.07610420      -0.01234190
H        0.47891200      18.42270000      10.75920000       0.01126770       0.03432630       0.01284660
H       24.16997900      21.21920000      11.28630000      -0.05894780       0.04247590      -0.00525721
O        6.17285000      14.29480000      18.70870000      -0.06805830      -0.09504710       0.06500220
H        7.20825000      15.36560000      18.05170000       0.07632470       0.11240900      -0.07805660
H        7.40605000      13.65040000      19.88280000      -0.01031010      -0.02180320       0.01111370
O        8.76532000      21.39460000      20.97560000       0.02926550      -0.03018520       0.02386150
H       10.85660000      20.92770000      21.29270000      -0.07609020       0.03663170       0.01018060
H        7.75677000      20.44080000      22.24200000       0.01935840       0.00346967      -0.01610070
O       13.27445000       2.87056000       6.08775000       0.00207456      -0.05264390       0.11058300
H       11.90535000       2.21437000       7.49393000       0.04846730       0.02618780      -0.03915810
H       12.31165000       3.46134000       4.83244000      -0.04668210       0.02861170      -0.06822200
O       12.35785000       5.32375000       1.17350000      -0.00744343       0.02311830       0.03070240
H       11.02505000       4.08125000       1.13340000      -0.00308782      -0.00497570      -0.00322963
H       13.58815000       5.09745000      24.33555000       0.01566880      -0.00920504      -0.02583880
O       14.85440000      20.17710000       9.42175000       0.02104360      -0.03318780       0.01036700
H       15.33990000      18.31800000       9.20095000      -0.01883000       0.03716260       0.00166997
H       13.38180000      20.38230000      10.54915000      -0.00010491      -0.00726429      -0.01396140
O        0.10335000      14.87830000      10.41575000      -0.05559300       0.03622130       0.04932340
H        0.73155000      14.24960000       8.95085000       0.02987770      -0.02280680      -0.06269910
H        1.38135000      14.92710000      11.65115000       0.02376590      -0.01083140       0.01636170
O        0.75816300       4.09890000       0.52160500      -0.03082500       0.04900030      -0.01329470
H        1.22806000       4.64331000       2.15538000       0.01422720      -0.00462055       0.01150110
H        1.02729000       2.39277000       0.19213200       0.01263870      -0.04851950       0.00524707
O       21.64490000      23.88750000       7.46345000      -0.10236400       0.00266747       0.02289320
H       23.10270000      23.95000000       6.61525000       0.06989680       0.00179944      -0.05454590
H       20.11690000      24.07550000       6.28695000       0.03507990      -0.00759611       0.02880800
O       15.87990000      10.15790000       1.15735000       0.04264040       0.02913940      -0.07092670
H       15.40370000       9.85447000      23.67450000       0.00915628       0.00258904       0.05261560
H       17.47740000      11.36650000       0.87145000      -0.05259100      -0.03085270       0.01568280
O        7.41515000      14.12110000       4.89965000      -0.00200498      -0.03486520      -0.02080590
H        7.03245000      14.06680000       6.69285000       0.01081030      -0.00421125       0.00084278
H        7.39085000      12.32990000       4.22515000      -0.00418139       0.03781510       0.02280490
O       17.58850000      20.94950000      14.16385000       0.05586010       0.02879910      -0.01368890
H       19.15090000      22.21710000      14.10265000      -0.05245300      -0.03915450      -0.00799383
H       16.95230000      20.66220000      12.41945000       0.00857824       0.01094070       0.01101410
O        8.86280000       2.12455000       2.48093000      -0.06589620      -0.01930370       0.00611654
H        7.38860000       2.57575000       3.77794000       0.03729840      -0.01312040      -0.05361250
H        8.02670000       1.25355000       0.91711800       0.01219000       0.03154250       0.04639410
O        6.08315000      20.28070000       9.04965000      -0.05721040       0.11332100      -0.01075500
H        6.58105000      18.72540000       9.32585000       0.03488040      -0.12442700       0.01695980
H        4.39565000      20.40670000       9.85765000       0.02013820       0.00308825      -0.00996336
O       13.11075000       6.43019000      11.39410000      -0.00035916      -0.01427200       0.01973740
H       11.73275000       7.21427000      10.49720000      -0.00606413       0.00745672      -0.00401616
H       14.58825000       7.46531000      11.43580000       0.00291831       0.00442756      -0.01351520
O        5.93288000       1.38366000      22.13155000       0.01544370      -0.00035744      -0.00850531
H        7.00747000      24.17157700      21.83817000      -0.00721818       0.04902750      -0.01673530
H        6.31389000       3.07690000      21.26249000       0.01313800      -0.05166810       0.01492010
O       19.94445000       4.82253000      23.82710000       0.01122000       0.00602279       0.01370240
H       18.78515000       4.58328000       0.89215000       0.03346050       0.01162910      -0.00930189
H       21.80105000       4.97303000      24.28190000      -0.03789090      -0.01688790       0.00617950
O       20.60940000      13.54840000       6.26425000      -0.08960600      -0.07345000      -0.01512260
H       19.69375000      13.61400000       4.62405000       0.01759380      -0.00073838       0.01601620
H       21.79389000      14.71580000       6.09345000       0.07370260       0.07064320      -0.00896920
O        7.54705000      15.16265000      10.11530000       0.16104600       0.04366230      -0.08018370
H        6.53239000      14.63285000      11.30030000      -0.07003550      -0.04513940       0.09373040
H        9.47811000      14.79935000      10.75630000      -0.07783380       0.00742496      -0.02533300
O        8.10735000      19.63090000      16.19870000      -0.08282210      -0.01458590      -0.04912270
H        5.94135000      19.68160000      15.77100000       0.09352990       0.01049320       0.03613870
H        8.47265000      20.29110000      17.84350000      -0.01599030       0.00934300       0.01688350
O        9.34355000       8.68495000       3.71770000       0.07157550       0.01543260       0.01263770
H       11.01225000       8.00755000       2.89280000      -0.06991610      -0.00020871       0.00575692
H        7.64515000       8.18865000       3.39650000      -0.00239745      -0.01569370      -0.01928610
O       14.54490000       9.90425000      19.74810000       0.00119255       0.01171340       0.01092000
H       14.51900000      11.54525000      18.74630000       0.00264829      -0.01418370      -0.00430367
H       14.07510000       8.47155000      18.70420000      -0.00556130      -0.00289192      -0.00717924
O        1.90369000      23.72640000      23.59770000      -0.12574500      -0.07216720       0.01788060
H        0.61795600      22.59570000      22.57430000       0.04790620       0.03713100       0.03098780
H        3.09015000      24.27070000      22.50320000       0.06665280       0.02871090      -0.05180730
O        1.50581000      14.16900000       5.41061000      -0.08302820      -0.01807270       0.00887181
H        1.70276000      12.52860000       4.71931000       0.00900998      -0.01137370      -0.00989949
H        3.06383000      14.81740000       5.50475000       0.08046340       0.03090110      -0.00234398
O        1.77577000       2.39864000      14.67850000      -0.04256770       0.11773100      -0.06637920
H        2.45924000       1.33024000      15.72340000       0.05353660      -0.09077010       0.08303830
H        1.86944000       4.08958000      15.54860000      -0.01484500      -0.03370090      -0.01532420
O       13.22840000       5.42670000      17.04270000       0.05605830      -0.01705560       0.00441052
H       13.87780000       5.82400000      15.23530000      -0.01399240      -0.02229290       0.05405280
H       14.54850000       4.36930000      18.27480000      -0.04448510       0.04097410      -0.05405650
O        4.02747000       3.46740000       4.96095000       0.05007230       0.03592230      -0.06028910
H        4.17754000       4.34660000       6.43515000       0.00161459       0.02047410       0.05392900
H        2.83368000       2.25530000       5.05295000      -0.04272630      -0.05980830       0.01218910
O       13.11660000      13.97885000       3.42725000      -0.06546730      -0.05741710       0.01368880
H       13.72980000      12.65505000       2.20307000      -0.00274881       0.01734820       0.02549250
H       11.38840000      13.08595000       4.20095000       0.06618120       0.04205900      -0.03166330
O       23.04330000       7.23185000      14.98550000       0.04281840      -0.08186490       0.04971800
H       22.66440000       7.45965000      16.75350000      -0.00364529      -0.00405922      -0.00239982
H       22.43860000       8.56955000      14.17720000      -0.03600090       0.08856570      -0.04610070
O        9.07205000       9.07865000       9.07654000      -0.05327030      -0.02926970      -0.04054520
H        9.50165000       8.52305000       7.23371000      -0.01946460       0.02061220       0.04296440
H        7.02165000       8.91875000       9.22423000       0.07896380       0.00809891      -0.00807916
O        0.62960000       5.22602000      19.78670000       0.04833310       0.04989280       0.04039390
H        0.86700000       4.56023000      21.59140000      -0.00196488       0.01864410      -0.04415870
H        1.75610000       6.90230000      19.87610000      -0.03909450      -0.06587490      -0.00245595
O        3.91785000       9.07155000      10.17205000      -0.04430210       0.00704557      -0.01028040
H        3.82245000       7.37365000      10.75325000       0.01699840      -0.02144680       0.00992027
H        2.17745000       9.14475000       9.47395000       0.02074020       0.00845605      -0.00505013
O       15.85890000      15.02570000       7.99855000      -0.01712630      -0.01387720      -0.03000580
H       17.50470000      14.25890000       7.57555000      -0.01009360       0.00995351       0.00734544
H       14.80290000      14.80380000       6.38935000       0.02142280       0.00485897       0.02561400
O        2.86735000      21.41059000      16.12585000      -0.01479660      -0.00708747      -0.01831780
H        1.79275000      20.75195000      17.58115000       0.01483930       0.00868291      -0.04999560
H        2.27775000      21.21020000      14.23065000      -0.00059981      -0.01031250       0.06806230
O       18.05165000       8.17877000       9.51265000       0.00059268       0.01012970      -0.06770460
H       18.06955000       7.91104000       7.48515000      -0.00595201      -0.00338632       0.07312900
H       18.02405000       6.57359000      10.42075000       0.00860977      -0.00644644      -0.00940149
O       14.26655000      13.79380000      16.96102000       0.01620450       0.04326110      -0.04954310
H       15.67212000      15.26470000      16.50572000      -0.02856210      -0.06104900       0.01247070
H       13.69405000      13.20660000      15.21731000       0.01008050       0.01309430       0.03039340
O        5.05790000       3.86995000      10.65825000       0.11806300       0.00066523      -0.06363740
H        6.93010000       3.17035000      11.06925000      -0.06382950       0.02512540      -0.01810630
H        4.07680000       3.53595000      11.97925000      -0.05255580      -0.02928190       0.07711120
O       16.45830000      23.10048000       5.31745000      -0.03373010      -0.00546158       0.02807270
H       15.11560000       0.07492100       5.39690000       0.02350530      -0.01665610      -0.00575293
H       15.90090000      22.04215000       6.85058000       0.01225080       0.01736020      -0.02831900
O       13.32670000      22.16058000      21.89175000       0.00747489      -0.02404000      -0.03635120
H       13.53190000      21.21921000      20.13015000       0.01770530       0.02718800       0.03892690
H       14.03040000      21.05310000      23.14975000       0.00452206      -0.00289480       0.00526073
O        4.35432000      13.30925000      12.99535000      -0.03204900      -0.04486390       0.05655340
H        4.37360000      12.78125000      14.82376000       0.00795996       0.02525310      -0.02872400
H        3.74998000      11.65545000      12.32595000       0.01558280       0.01732520      -0.00819703
O       18.50360000      15.97900000      15.88540000       0.00612187       0.04169430      -0.02428920
H       18.56110000      17.89060000      15.33770000       0.00161837      -0.04974630       0.00296314
H       19.09390000      14.86180000      14.49270000      -0.00627179       0.01612510       0.01747770
O       10.31840000      21.01450000      11.69535000      -0.06033110       0.02876910       0.00243801
H        9.65146000      21.42080000      13.46605000       0.01342700      -0.02587140      -0.03122310
H        8.58230000      20.97130000      10.59065000       0.05174770       0.00139165       0.03570580
O       23.95140000       8.52340000       6.63595000      -0.05068250      -0.02935260       0.02380150
H       23.00990000      10.08660000       6.51405000       0.00228095       0.00439724      -0.00276807
H       22.49190000       7.37380000       7.23535000       0.04379090       0.02662900      -0.01577790
O       17.50736000       6.19441000       4.55974000      -0.01033770       0.02235520      -0.01088510
H       16.72715000       7.57974000       3.50069000       0.00613490      -0.02789020       0.01654120
H       16.17895000       5.18070000       5.35615000       0.00100030       0.00732381      -0.00924998
O       14.19790000      20.10920000      17.66270000      -0.14902000      -0.08011000       0.07995210
H       13.69090000      18.34670000      17.06930000      -0.01720340       0.03595450       0.03132350
H       15.40170000      20.10420000      16.61560000       0.15306100       0.04110210      -0.11486700
O        1.16272000      13.92000000      21.74045000       0.02178610      -0.00110370       0.02368380
H       24.02995000      13.84060000      20.84165000      -0.02023830       0.00336229      -0.02298680
H        2.65065000      14.02440000      20.69905000      -0.00488967       0.00313659      -0.00749094
O       15.21285000      18.74605000       2.21073000       0.07150420       0.06532930      -0.01041980
H       15.65935000      20.52365000       3.15487000      -0.03790100      -0.06244770      -0.01443920
H       13.87995000      17.58595000       2.25388000      -0.03249190       0.00157998       0.02643390
O       20.43980000      13.52200000      20.55170000       0.00593667      -0.00519301       0.00184097
H       20.18890000      11.80720000      19.89510000       0.00889720      -0.01144070       0.01826570
H       19.36950000      14.36110000      19.40890000      -0.00889811       0.02603820      -0.01748590
O        6.61065000      18.52985000       1.19013000      -0.00760652       0.03273340      -0.02940220
H        6.46475000      16.88285000       1.72267000      -0.00742537      -0.04765490       0.01284310
H        7.85645000      19.16315000       2.29458000       0.01681590       0.01829330       0.01567870
O        9.85495000      21.52770000       4.69995000       0.02118530       0.08799680      -0.07379680
H        9.10375000      21.16290000       6.17135000      -0.03688140      -0.02128330       0.07085870
H        9.46472000      23.49960000       4.50715000       0.01657510      -0.06843670      -0.00401845
O        4.20650000       9.50725000       3.80099000      -0.05293840      -0.03310410      -0.03900060
H        3.04769000       8.58675000       4.91215000       0.01636760       0.00874860       0.00203059
H        3.20228000       9.03125000       2.13228000       0.03476890       0.02502910       0.03393650
O       12.79215000      12.54815000      11.51390000       0.01538450      -0.03004850      -0.02374220
H       12.32335000      10.61125000      11.46750000       0.01744750       0.07580480      -0.01264470
H       14.00825000      13.21795000      10.02150000      -0.03316950      -0.03080830       0.04314760
O       18.92647000       4.75940000      12.80280000       0.02514500       0.03088330       0.01986710
H       20.59946000       5.48607000      13.41670000      -0.03371060      -0.01006910      -0.00780578
H       19.23416000       3.03149000      13.12950000       0.00209524      -0.02232230      -0.00588472
O        1.50365000       9.16875000      23.80783800       0.01755680       0.06353740      -0.02364860
H        0.91755000      10.63875000      22.71471000       0.02920160      -0.00682572       0.03118260
H        0.21305000       8.10905000      23.42289000      -0.04176460      -0.05282210      -0.00350652
O       19.68390000       8.68509000      20.00445000       0.00335216      -0.03812760       0.04891240
H       19.97240000       7.56464000      21.68115000      -0.01611890       0.03291930      -0.05876580
H       17.84460000       8.90143000      19.88095000       0.00968832      -0.00413662       0.00310135
O       15.67280000       3.54265000      21.46395000      -0.10293700       0.06083790      -0.05893670
H       17.22530000       3.57265000      21.98345000       0.13732600       0.01678610       0.03317790
H       15.20190000       1.98385000      21.91895000      -0.03937630      -0.08376630       0.01561430
O       10.15905000      10.70410000      22.25160000       0.04225450       0.00384038      -0.03409270
H       11.96245000      10.66010000      21.18410000      -0.05563830       0.00594172       0.04587770
H       10.06685000      11.89550000      23.63900000       0.01294830      -0.00863228      -0.01112120
