192
TotEnergy=-1103.31566000 cutoff=-1.00000000 nneightol=1.20000000 pbc="T T T" Lattice="24.05554000       0.00000000       0.00000000      -0.00000100      24.05554000       0.00000000      -0.00000100      -0.00000100      24.05554000" Properties=species:S:1:pos:R:3:force:R:3:Z:I:1
O              20.37430000      3.28047000    -31.60920000      0.02589750     -0.00977727      0.04386700       8
H              21.32090000      3.19860000    -29.69660000     -0.03837220     -0.00518284     -0.05851400       1
H              19.00010000      1.98912000    -32.10720000      0.01954490      0.01460140      0.02631740       1
O              46.67540000     44.13550000     10.81110000      0.08850650     -0.05697630      0.09450240       8
H              48.31650000     43.05630000     10.37650000     -0.03983710      0.02323040      0.04085450       1
H              46.43950000     44.26190000      9.18454000     -0.04958510      0.03223340     -0.12986500       1
O              10.37400000      1.09280000     16.63010000     -0.08605240     -0.00388947     -0.00433831       8
H               8.57751000      0.35840500     16.23880000      0.04248540      0.03843220      0.02106700       1
H              11.17760000     -0.35295300     16.08430000      0.04151650     -0.03129930     -0.01068060       1
O              -4.68430000     -9.17339000     -1.49054000     -0.02444760      0.06361120     -0.05602050       8
H              -5.56664000     -7.37074000     -2.05320000      0.03609760     -0.07380290      0.04259460       1
H              -4.85284000     -9.65931000      0.25103300     -0.01052310      0.02040470      0.01409230       1
O               6.80346000     33.24140000     20.94290000      0.01211790     -0.06162030      0.01800200       8
H               6.78143000     34.78650000     20.18130000     -0.00565719      0.05590510     -0.03221440       1
H               8.30073000     32.33420000     20.32350000     -0.01256350      0.00241835      0.00929730       1
O              -2.28553000     14.77250000      7.16112000      0.01967740     -0.01527690     -0.02257680       8
H              -1.18495000     13.59670000      6.12089000     -0.01469830      0.02646500      0.03092620       1
H              -1.23455000     16.16570000      7.75252000     -0.00361911     -0.01893850     -0.00599765       1
O              38.17600000     22.87630000     11.48020000      0.05865000      0.01726700     -0.06770190       8
H              39.11740000     22.44450000      9.67854000     -0.04305050      0.01480240      0.05922540       1
H              37.14240000     21.51980000     11.91390000     -0.02540850     -0.03083910     -0.00077998       1
O               0.21240600    -24.36300000     14.87350000     -0.04514690     -0.02665230     -0.03381530       8
H              -0.66505100    -25.73720000     13.68890000      0.02996300      0.05087580      0.03686320       1
H              -1.06963000    -23.00990000     15.22390000      0.01247100     -0.01902820     -0.00570625       1
O              30.47760000    -34.81360000     17.39260000      0.10295300     -0.13608800     -0.11431800       8
H              32.42100000    -34.50950000     17.10810000     -0.04902350     -0.00806813      0.00577635       1
H              30.05290000    -33.57200000     18.28310000     -0.05823350      0.15068500      0.10967900       1
O               9.07231000    -25.35900000    -22.70590000      0.00339716     -0.05331540     -0.05688900       8
H              10.34560000    -25.31220000    -24.10050000     -0.00852570     -0.01339370      0.01358210       1
H               9.35224000    -23.86800000    -21.93770000      0.00566465      0.06203630      0.04679200       1
O             -11.23310000      4.47962000      6.03922000      0.04666160      0.02631400     -0.00964265       8
H             -12.83010000      3.64270000      5.88754000     -0.01502440      0.00477054     -0.02376110       1
H             -10.54020000      5.72270000      4.71398000     -0.03592850     -0.03505990      0.02661690       1
O             -10.28950000     32.56720000     50.55750000      0.03487150     -0.00160627      0.02275870       8
H             -10.58270000     31.81870000     49.02260000      0.01601110     -0.03198280     -0.04725740       1
H             -11.92150000     33.19240000     50.72370000     -0.04421990      0.02828740      0.02978980       1
O              14.17680000    -29.61880000    -21.07210000     -0.03426300     -0.04360750     -0.00457317       8
H              14.99070000    -31.16570000    -20.57770000      0.05968290      0.00440804      0.01391520       1
H              12.76800000    -30.84030000    -21.26790000     -0.02378850      0.04075790     -0.01518840       1
O              26.03590000     15.72380000     34.23800000      0.05667900      0.01503620      0.02054270       8
H              27.80410000     15.93760000     33.46190000     -0.04130160     -0.00180207      0.01896500       1
H              26.39850000     15.79220000     36.10340000     -0.01032610     -0.00411769     -0.03605780       1
O              -1.12379000      3.14310000     -2.78665000     -0.02893720     -0.08297830      0.01136780       8
H               0.61350400      3.63395000     -2.85372000      0.01219120     -0.00070419      0.00156403       1
H              -1.19419000      1.02991000     -2.22540000      0.00654149      0.07550160     -0.01356690       1
O             -26.65840000     21.55280000     29.91710000      0.02735880      0.00817027      0.01245010       8
H             -28.45210000     21.78750000     29.83810000      0.00137832      0.01434950      0.00410994       1
H             -25.63590000     22.98500000     30.66790000     -0.02895090     -0.02454920     -0.02351350       1
O             -29.99630000      9.97506000     21.29990000     -0.05589120     -0.04134210     -0.07977060       8
H             -31.34700000      9.60742000     19.67620000      0.04828020      0.01045700      0.07268540       1
H             -30.28500000     11.70940000     21.58310000      0.00420827      0.02663110      0.00527280       1
O             -14.76160000     58.23530000    -20.16540000      0.02509050      0.01673120     -0.04768470       8
H             -14.70130000     58.45960000    -18.44510000      0.00040362      0.00948204      0.05201430       1
H             -16.20160000     57.31730000    -20.63650000     -0.03228610     -0.01785900     -0.00983654       1
O              65.11660000     23.78190000     39.53850000      0.00135793     -0.06912750     -0.05577900       8
H              63.69380000     23.56140000     38.03960000      0.05125840      0.00537239      0.03829700       1
H              66.28420000     22.14510000     39.17670000     -0.04558360      0.05612600      0.01825930       1
O              56.71470000    -22.40300000      5.58260000     -0.03409670     -0.01671540      0.07708780       8
H              55.58350000    -22.83680000      7.22401000      0.04695740      0.00606865     -0.05475590       1
H              55.40050000    -21.58770000      4.66714000     -0.01682530      0.00794387     -0.01576150       1
O              31.53780000     17.39660000    -15.43710000      0.03131980     -0.05427130      0.03461170       8
H              32.15280000     15.56140000    -15.46580000     -0.01937960      0.03181010     -0.01095260       1
H              32.42110000     17.79910000    -13.80890000     -0.01705690      0.01550480     -0.02294450       1
O              -9.19958000      7.69669000     61.75670000      0.13390500      0.06833760      0.04410210       8
H             -10.22250000      6.61200000     60.99850000     -0.05599920     -0.07892540     -0.05230000       1
H              -7.13891000      7.14935000     61.63090000     -0.07349200      0.01608400     -0.00549748       1
O               3.98505000      0.15701600     -1.44796000     -0.09609580     -0.04233980      0.03303860       8
H               2.71057000     -1.29994000     -0.56880300      0.06777560      0.06331840     -0.03847980       1
H               5.58995000     -0.49542200     -1.21321000      0.03618890     -0.02087360      0.00704252       1
O              43.59510000      6.12851000     24.68290000     -0.04972510      0.05373060      0.05824670       8
H              43.46750000      7.75428000     23.86650000     -0.00179675     -0.00014881     -0.00861336       1
H              44.44250000      5.09110000     23.65320000      0.05331600     -0.05094490     -0.05444940       1
O               1.50790000     58.19150000     30.40780000      0.13076300      0.05849940     -0.05163040       8
H               0.10918300     57.19070000     30.21090000     -0.04124920     -0.04703550     -0.02354050       1
H               2.96769000     58.12380000     28.77930000     -0.08240950     -0.01106500      0.06601710       1
O               9.18152000     36.10260000      8.96383000      0.06789210      0.08941320     -0.03436470       8
H               8.27846000     34.82210000      9.57134000     -0.05355940     -0.07077070      0.04693830       1
H              10.73140000     36.46470000      9.94176000     -0.01522430     -0.01744180     -0.01138640       1
O             -16.90160000     20.32020000     17.07470000      0.09524570      0.00314871      0.01017310       8
H             -18.46400000     19.69730000     17.16950000     -0.09629060     -0.01824870      0.00173953       1
H             -16.04180000     18.98360000     18.06440000      0.00375411      0.02353590     -0.00555152       1
O              29.10300000     31.90460000     49.90060000      0.01235780     -0.06156490      0.01777970       8
H              29.49760000     32.03080000     48.12170000     -0.00156014      0.00526468      0.00048928       1
H              29.22770000     29.94620000     50.29500000     -0.01586330      0.05972290     -0.00920798       1
O              13.59780000     33.16390000     18.24960000      0.01286210      0.02509170     -0.03605100       8
H              13.84630000     32.94990000     16.32410000      0.00047287     -0.01120020      0.03597300       1
H              12.65150000     31.76590000     18.83580000     -0.00847201     -0.01429860     -0.00302174       1
O              -1.43919000    -25.88870000     22.98610000      0.09805780      0.02899850      0.02122820       8
H              -3.02126000    -26.49990000     22.99500000     -0.08105620     -0.03220100      0.00601733       1
H              -0.58132100    -26.35130000     24.65290000     -0.02653010      0.00332167     -0.03301910       1
O               4.92649000     16.16770000     -1.97257000      0.12053700      0.12072300      0.01414910       8
H               6.45152000     15.50480000     -1.09364000     -0.01555450      0.01312170     -0.00237406       1
H               3.97063000     14.87990000     -2.02742000     -0.11511200     -0.13493300     -0.01056960       1
O               4.50914000      3.05399000     15.99060000     -0.03989190     -0.02800630      0.04229760       8
H               3.26997000      1.60638000     15.74600000      0.02806780      0.03377030     -0.00106211       1
H               3.87772000      3.84831000     17.72490000      0.01416850     -0.00907217     -0.04652110       1
O             -37.99440000     53.54220000    -27.57940000     -0.02187660      0.15637400      0.01424040       8
H             -38.33100000     52.05380000    -28.09700000     -0.02756520     -0.14592900     -0.05440910       1
H             -36.56200000     53.57490000    -26.64060000      0.05553320     -0.01668070      0.03958820       1
O               5.25126000     48.00020000    -13.77520000      0.02905100      0.02046430      0.02352450       8
H               5.92701000     49.65720000    -13.10680000     -0.02015760      0.00045147     -0.01951230       1
H               6.15692000     47.07210000    -12.49140000     -0.01005170     -0.01910010     -0.01038130       1
O             -31.20000000     34.37180000      6.22809000      0.07737680     -0.00305102      0.04823120       8
H             -31.97330000     33.41310000      5.03175000     -0.04726610     -0.02737110     -0.05357380       1
H             -29.61280000     33.26150000      6.35287000     -0.02599320      0.03094980      0.00817501       1
O              21.64830000     35.48550000     12.49470000      0.02149920     -0.01272120      0.02874330       8
H              23.37140000     36.09890000     12.83430000     -0.01725120     -0.00221126     -0.00733105       1
H              20.95040000     36.26730000     11.07150000     -0.00158743      0.01581460     -0.02239780       1
O             -11.78670000    -20.09970000     11.00470000     -0.05187820      0.07436560     -0.00652987       8
H             -11.50210000    -20.23290000      9.24063000      0.00805934      0.00802218     -0.02422210       1
H             -10.98380000    -21.38740000     11.72050000      0.04051040     -0.07714780      0.03917140       1
O             -45.27520000      6.02031000     19.61770000      0.02720810      0.02820750      0.00223295       8
H             -46.93340000      6.80158000     19.10090000      0.04241630      0.00452389      0.00553116       1
H             -43.63520000      7.25354000     19.73930000     -0.06677620     -0.02600250     -0.00132329       1
O             -19.11450000    -14.93060000     34.49160000     -0.02778410      0.16403500     -0.06513730       8
H             -18.85640000    -16.43490000     35.09800000      0.01169660     -0.12979500      0.02346270       1
H             -20.09570000    -14.45690000     32.88430000      0.00988876     -0.03521260      0.04042080       1
O              18.23850000     14.81610000     27.66780000      0.03181160     -0.02456630      0.08048110       8
H              19.70030000     15.31490000     29.01450000     -0.03530020      0.00025527     -0.04395440       1
H              17.84560000     13.29930000     28.82440000     -0.00633509      0.02298660     -0.03941950       1
O             -22.15280000     -3.77929000     42.22170000     -0.03775990     -0.02168410      0.07617000       8
H             -23.32090000     -3.51043000     43.80020000      0.04046270     -0.01298110     -0.04072160       1
H             -22.53600000     -2.23993000     41.42870000     -0.00707128      0.02876000     -0.03072410       1
O              44.79160000      3.15343000     33.40550000      0.00669247      0.03885950      0.03215900       8
H              44.61050000      4.37334000     34.97160000      0.00366120     -0.02963750     -0.03843320       1
H              43.90770000      1.65123000     33.79330000     -0.00943266     -0.00816108      0.00368972       1
O              -9.84941000    -31.81960000    -10.50090000     -0.00217166     -0.05451510     -0.04607190       8
H              -8.12730000    -31.29220000    -10.30090000      0.01140360      0.01123570      0.01174960       1
H              -9.61563000    -33.36410000    -11.85690000     -0.01266710      0.04363470      0.04353040       1
O              54.90560000    -19.58950000    -12.23770000      0.08133890      0.01120150     -0.08398120       8
H              56.83700000    -19.69340000    -12.17200000     -0.03551630      0.00529567     -0.01422510       1
H              54.53980000    -19.93510000    -10.62930000     -0.03834800     -0.01686350      0.09912040       1
O              15.14710000     -1.37313000      6.10292000     -0.03301530     -0.04843130     -0.06020920       8
H              13.96820000     -0.06943600      5.57877000      0.00991643      0.00613242      0.01162530       1
H              14.53090000     -2.80808000      4.70031000      0.02850310      0.03913220      0.05917840       1
O             -37.46960000     -6.07359000     44.59850000     -0.01692190     -0.01456720      0.00861536       8
H             -36.92800000     -7.68025000     43.92950000      0.01403710     -0.00092793     -0.01653620       1
H             -38.39320000     -6.82758000     45.98550000     -0.00100253      0.01419180      0.01178750       1
O               2.35336000    -13.05580000     -9.21630000     -0.00183332      0.01579080      0.00074020       8
H               3.61803000    -11.89740000     -8.64123000      0.00190820      0.00832035      0.01775240       1
H               3.22315000    -13.66690000    -10.64580000      0.00649469     -0.02128490     -0.02963940       1
O              19.27180000     18.27350000     14.94190000      0.04191160     -0.05545530     -0.00665717       8
H              20.11230000     18.40830000     13.27670000     -0.00916015      0.00517731      0.01767950       1
H              20.53710000     16.75500000     15.68080000     -0.03201100      0.06101050     -0.01792170       1
O               9.97631000     19.52990000    -11.28820000      0.04460780     -0.03723860      0.00095746       8
H              11.17300000     18.23410000    -10.51650000     -0.01675990      0.02445730     -0.02440280       1
H               9.26754000     20.28800000     -9.84471000     -0.02379450      0.00601192      0.02014560       1
O              25.19000000     49.20280000     31.34860000      0.20218700     -0.11396400     -0.07110230       8
H              23.92620000     49.88420000     31.91630000     -0.20348600      0.12256500      0.08957880       1
H              26.14410000     48.68500000     32.85640000      0.00187517     -0.00009215     -0.01533200       1
O              -2.50840000      6.90379000      5.63736000      0.05108600      0.07405850      0.07648270       8
H              -2.71543000      5.85558000      7.02786000     -0.01928510     -0.04265040      0.00605724       1
H              -3.05139000      6.82382000      4.05138000     -0.04009770     -0.03575030     -0.08660100       1
O              12.43740000    -25.49120000     21.51220000     -0.03073960     -0.05569850     -0.00394133       8
H              11.40390000    -27.02170000     20.85880000      0.04217570      0.00782785      0.02493680       1
H              11.40370000    -24.43980000     20.55980000     -0.00642732      0.04991750     -0.02503500       1
O              -6.64334000     20.41540000     47.09340000     -0.03911090     -0.02522850      0.02359770       8
H              -7.80029000     21.28330000     46.01110000      0.00198278      0.00899195     -0.01320620       1
H              -7.98944000     19.58640000     48.21240000      0.03779020      0.01468650     -0.01293310       1
O              33.10600000     39.36520000      1.16421000      0.00868477     -0.02099390      0.00004378       8
H              32.16390000     40.66950000      2.22883000      0.00457871     -0.01227180      0.00165143       1
H              33.25480000     37.65080000      1.93043000     -0.00797365      0.02847740     -0.00480631       1
O              23.54420000     16.05350000    -31.64380000      0.02796550      0.06485840     -0.01908290       8
H              23.29660000     15.01370000    -30.26500000      0.00348086     -0.03144310      0.03809030       1
H              24.53750000     17.64800000    -30.89080000     -0.02923790     -0.03931410     -0.02472920       1
O             -22.13150000     43.82450000      1.69012000      0.00590869     -0.02724840     -0.06639910       8
H             -21.58590000     42.78440000      0.15576800     -0.01893200      0.03357820      0.00993983       1
H             -21.30690000     42.57730000      2.62233000      0.01733480     -0.00675476      0.05257580       1
O               6.85767000    -29.37470000     27.69930000      0.02151660      0.07245010     -0.05211740       8
H               7.55033000    -29.55940000     29.29760000      0.00868393     -0.00842274      0.04874330       1
H               7.76398000    -27.55320000     27.12480000     -0.03238520     -0.06176700      0.00678387       1
O               4.10084000     26.69400000      3.26951000      0.02378470      0.13986400      0.20380400       8
H               4.08463000     25.91190000      1.92058000     -0.02277570     -0.12300600     -0.18864600       1
H               2.90304000     26.41720000      4.65426000      0.00064071     -0.01247000     -0.01875280       1
O              -9.73464000    -11.97200000     10.52410000      0.01106890     -0.03038000     -0.01597660       8
H              -9.56779000    -13.65380000     11.35770000     -0.00241444      0.01956970      0.00645924       1
H              -8.93524000    -12.42780000      8.87380000     -0.00692652      0.01243220      0.01427490       1
O              -3.96731000      6.66536000     12.91490000     -0.02097040      0.04332520     -0.06534560       8
H              -3.02110000      8.25108000     12.98660000     -0.00266850      0.00609561     -0.00965527       1
H              -3.81444000      5.86290000     14.41350000      0.01506550     -0.05193600      0.07756430       1
O              24.24600000    -10.99420000     -3.05977000      0.03451840     -0.03519420     -0.02573760       8
H              23.89390000    -12.60080000     -4.16418000     -0.00429618      0.04270520      0.03667130       1
H              22.70760000    -10.19750000     -2.69899000     -0.03086710      0.00534004      0.01140830       1
O              23.12440000      9.51107000     42.09900000     -0.11090300     -0.07750950      0.04160800       8
H              21.38000000      8.90214000     41.42130000      0.05375050      0.02374720      0.03356620       1
H              23.89830000     10.15400000     40.74860000      0.05296220      0.03306080     -0.08081940       1
O              14.47910000     27.80530000     47.24950000      0.05130460      0.00332655     -0.00284579       8
H              16.15470000     28.92160000     47.04410000     -0.05040450     -0.05264880      0.01669370       1
H              14.86930000     25.96240000     47.63780000      0.00031595      0.05356040     -0.01270780       1
O             -12.60210000     14.04270000     17.52850000     -0.07005820      0.10376800      0.02207480       8
H             -11.77650000     15.12490000     16.39700000      0.03064010      0.00172390     -0.03035930       1
H             -12.13330000     12.46160000     17.63860000      0.05259780     -0.11409200      0.00301595       1
