192
TotEnergy=-1102.96067000 cutoff=-1.00000000 nneightol=1.20000000 pbc="T T T" Lattice="22.97422000       0.00000000       0.00000000      -0.00000100      22.97422000       0.00000000      -0.00000100      -0.00000100      22.97422000" Properties=species:S:1:pos:R:3:force:R:3:Z:I:1
O              16.32860000     22.01900000      1.79637000     -0.05219470      0.10436800      0.02057670       8
H              16.89110000     20.43930000      1.93987000      0.02751040     -0.08772060      0.01234540       1
H              15.39250000     22.61360000      3.42525000      0.02941710     -0.01938600     -0.03913950       1
O              14.73690000      6.66848000      7.96868000     -0.08761630      0.01436410      0.04978670       8
H              13.91330000      8.42900000      8.20280000      0.03636830     -0.02457760     -0.01396470       1
H              16.18010000      6.55621000      7.03985000      0.05112650      0.01329930     -0.03741060       1
O              15.50430000      0.79182700     15.10750000     -0.00388547      0.00519536     -0.00814127       8
H              15.68340000      1.46720000     13.30230000      0.02482200      0.00073395      0.04625210       1
H              17.06540000      0.91650200     16.21650000     -0.02441240     -0.00651229     -0.03718150       1
O              16.49720000     20.64230000      9.80396000      0.04322380     -0.04149940      0.01935220       8
H              17.03670000     18.63230000     10.02070000     -0.01430560      0.08144670     -0.00965598       1
H              17.88030000     21.81980000     10.41250000     -0.03029710     -0.03513310     -0.01137690       1
O              17.15600000     11.72360000     12.17400000     -0.02041630      0.00308833      0.00198008       8
H              15.86030000     11.53680000     10.69170000      0.01222510      0.01061250      0.04286950       1
H              16.31480000     12.08930000     13.85800000      0.01045420     -0.01020830     -0.03901120       1
O               3.60371000     17.08660000     10.07960000     -0.07579260     -0.03071900      0.00836515       8
H               1.83526000     17.92120000      9.92872000      0.02349860     -0.02061330      0.00360715       1
H               4.51072000     18.42440000      9.45926000      0.04219340      0.04717390     -0.02072040       1
O               9.71566000     17.33140000     11.58690000     -0.04894890      0.05111090      0.05279780       8
H              10.11430000     19.42900000     12.34070000     -0.00384735     -0.06911050     -0.02227120       1
H               7.98357000     16.74880000     12.55010000      0.05859200      0.01599790     -0.03360080       1
O              15.79680000     12.82060000     17.24360000     -0.00926538     -0.00164815     -0.01071630       8
H              14.06090000     13.29000000     16.81660000      0.00471086      0.00467434     -0.00288881       1
H              15.60810000     11.34560000     18.28150000     -0.00380556     -0.01286330      0.00614069       1
O              19.89270000      1.97325000     22.63430000      0.00079701     -0.05216420      0.05122380       8
H              18.63190000      0.76775100     23.68440000      0.02532190      0.05176930     -0.03836800       1
H              19.40000000      3.32949000     21.47840000     -0.02890950     -0.00221223      0.01499860       1
O               9.33904000     10.58060000     12.32080000     -0.03942010      0.01058390      0.02403630       8
H               8.70674000     10.65870000     14.26660000      0.01016820      0.00384817     -0.06392930       1
H               7.93851000     11.41100000     11.10500000      0.03113010     -0.02418290      0.03827230       1
O              22.10720000     19.34900000      9.48578000      0.00797454     -0.01106820     -0.01880840       8
H              22.08530000     19.72070000      7.58724000      0.00604159      0.01970110      0.05026520       1
H              22.05050000     20.75420000     10.71910000      0.00072742      0.00010929     -0.03882300       1
O              11.52630000     19.90570000     19.51430000      0.08918270     -0.09144200      0.07160520       8
H              10.01130000     19.92570000     18.96080000     -0.14735000      0.01724850     -0.05428000       1
H              12.46600000     21.24840000     19.19300000      0.04302960      0.09025650     -0.02354780       1
O              19.69160000     22.92800000     17.82320000      0.08721870      0.02180420     -0.03785200       8
H              19.78350000     21.68960000     19.15650000      0.00601253      0.00705133     -0.01009140       1
H              21.74730000     23.25750000     17.11620000     -0.09550590     -0.02884390      0.03428530       1
O              19.19960000      7.47051000      5.68604000      0.02084870     -0.00314718     -0.06354460       8
H              20.83810000      7.27420000      4.56105000     -0.02068900     -0.00248668      0.04468140       1
H              19.73740000      7.71679000      7.38919000      0.01148640      0.00165133      0.02492460       1
O               5.42274000     15.86230000     14.22610000     -0.00490353      0.06167400     -0.00940469       8
H               4.37976000     16.29200000     12.70970000      0.00340150      0.00645350      0.00365111       1
H               5.43342000     14.14160000     14.35830000      0.00833344     -0.06044300      0.01636810       1
O              22.89610000     21.72660000      4.56422000      0.04348470     -0.12116200     -0.02978930       8
H              22.10260000     23.10290000      4.97053000     -0.05802150      0.12395200      0.03543180       1
H              21.59100000     20.82030000      3.63692000      0.01353610     -0.00654362     -0.00477921       1
O              11.73620000     19.53560000      3.41808000      0.00483019      0.04664150      0.01104140       8
H              10.68160000     20.97100000      2.76498000      0.01574810     -0.03354340      0.00869545       1
H              13.06640000     20.50710000      4.53948000     -0.03333780     -0.02598180     -0.02337890       1
O              22.61000000      7.25644000     15.17630000     -0.15614300     -0.18395100     -0.28409100       8
H              23.16250000      8.18450000     16.17010000      0.14437400      0.22323700      0.25448400       1
H              22.70940000      5.56479000     15.50940000      0.00996303     -0.03600820      0.02132290       1
O               6.84664000     22.81100000     16.21700000     -0.13197100     -0.17479000     -0.10377000       8
H               6.00516000     21.47870000     17.47000000      0.03666770      0.03423540     -0.04311690       1
H               7.53360000     23.75540000     17.26820000      0.09985240      0.14077400      0.13691100       1
O              19.35370000     10.59360000      1.95635000     -0.00857452      0.00894320     -0.00527851       8
H              19.22500000      9.46322000      3.48267000     -0.02344880      0.02690120     -0.01953820       1
H              17.73570000     11.28640000      1.32271000      0.02382770     -0.02426730      0.01618110       1
O               9.43364000      0.91687000      9.51437000     -0.00869496     -0.01248700     -0.10296600       8
H               9.04271000      2.58056000      9.82539000     -0.00809539      0.05091210      0.01219830       1
H               9.78238000      0.14876700     10.97250000      0.02119030     -0.03711410      0.07896120       1
O              11.90590000     15.63260000     15.81360000      0.07304010     -0.12191600      0.15240400       8
H              11.37170000     16.71040000     17.02740000     -0.01856570      0.04070760      0.04460580       1
H              11.51690000     16.24460000     14.41860000     -0.05361180      0.07661180     -0.19486300       1
O               2.13168000      1.07229000     14.64320000     -0.02346460      0.02609030      0.03928570       8
H               3.72143000      0.26900100     15.15940000     -0.00291296      0.01469580     -0.00307958       1
H               1.54472000      2.21359000     16.13720000      0.02586030     -0.03323740     -0.03009860       1
O              15.12610000      8.81818000     20.36950000     -0.01498430     -0.00307973     -0.01131040       8
H              14.89580000     10.03870000     21.66070000      0.00306093      0.00980777      0.01817290       1
H              13.66040000      7.72206000     20.60880000     -0.00163579     -0.00151098     -0.00135708       1
O               1.44024000      3.06328000      1.18684000      0.01135150     -0.02433530     -0.01550170       8
H              -0.31625200      2.22434000      0.76086100      0.03602310      0.00691002     -0.00112536       1
H               3.06761000      2.09793000      0.92038600     -0.05140370      0.01524340      0.00817756       1
O              13.25660000     11.29480000      9.09110000     -0.05575930      0.05542110      0.01044450       8
H              12.53380000     13.19430000      8.58701000      0.02687270     -0.06404980      0.00612500       1
H              11.90920000     10.78800000     10.43320000      0.02063250      0.01378230     -0.01612460       1
O               6.97807000     11.52760000     16.83360000      0.02508770      0.00643097     -0.04277980       8
H               5.34733000     10.99990000     17.33290000     -0.01138590     -0.00079145      0.02172550       1
H               8.28046000     12.17270000     18.01650000     -0.02216020     -0.01417150      0.00954832       1
O               4.44325000     10.26320000      4.97795000     -0.02134740      0.00528825     -0.00056700       8
H               2.66928000      9.63513000      4.91950000      0.03820350      0.00350676     -0.00140118       1
H               5.63612000      8.79524000      5.27327000     -0.02271340      0.01140930     -0.00791457       1
O              12.14770000     16.43350000      7.48904000     -0.02516210      0.00786105      0.01135570       8
H              11.49450000     17.40030000      6.01488000      0.00286442     -0.01567600      0.02076300       1
H              10.97570000     16.82250000      9.06135000      0.01849510     -0.00429416     -0.02487900       1
O              13.80110000     22.72970000      6.17408000     -0.00912894      0.01927050     -0.04925760       8
H              14.74150000     22.42280000      7.62746000      0.02107810     -0.02003720      0.04789010       1
H              12.04950000     22.94820000      6.53001000     -0.00836000      0.01139900      0.01755870       1
O               9.75486000     12.07420000     20.63510000     -0.07331600     -0.03442720      0.02275800       8
H               8.01441000     12.45130000     21.67420000      0.04881010     -0.01837370     -0.02621360       1
H              10.68750000     13.50270000     20.90850000      0.03436130      0.04532980      0.01518030       1
O               1.66727000     10.91480000     18.24190000      0.03141150      0.08902790     -0.15963000       8
H               1.35027000     10.20570000     19.63090000     -0.02862410     -0.08818390      0.16972300       1
H               0.36674600     12.20740000     18.11650000      0.01027860     -0.00597697     -0.01013010       1
O              12.84970000      7.62549000      3.13703000      0.01935980      0.04817340      0.03398210       8
H              13.21350000      6.87496000      4.91221000     -0.00653311      0.03266170     -0.04925710       1
H              13.38600000      9.70174000      2.97081000     -0.01295990     -0.08068500      0.01365760       1
O              10.65250000      6.33155000     21.84440000     -0.03234540      0.08598010     -0.04098910       8
H              10.14570000      8.27693000     21.78660000      0.01167220     -0.06305850     -0.00519501       1
H              11.00950000      6.22718000     23.56640000      0.01796220     -0.00522935      0.04408710       1
O               0.32361300      3.42324000     18.90830000      0.07452350      0.04509400     -0.08990520       8
H              -1.04633000      2.74833000     19.55990000     -0.08048580     -0.04890250      0.05145370       1
H               1.48233000      3.84511000     20.14920000      0.01843650      0.00725517      0.03402360       1
O               0.76145100      6.81165000      4.09238000      0.01611840      0.07619530      0.16578300       8
H               1.49993000      5.74239000      5.62084000     -0.02009160      0.02197140     -0.04080320       1
H               0.67237800      5.67719000      2.93277000      0.00341537     -0.11657100     -0.11837600       1
O              19.67200000      7.50923000     10.48140000      0.11319700     -0.03980580      0.00050728       8
H              18.59910000      8.58694000     11.21430000     -0.06343890      0.06342420      0.03852550       1
H              21.19610000      7.72578000     11.68250000     -0.03685670     -0.01149760     -0.02909930       1
O               9.95800000      5.90131000      9.99030000     -0.03021700     -0.07291630     -0.05656300       8
H               9.35548000      7.10034000     11.05490000      0.00402583      0.06293940      0.04948000       1
H              11.62530000      5.59189000      9.44319000      0.02517400      0.01642260      0.00853017       1
O               3.08852000      3.50977000      7.42911000      0.01518330      0.09532570     -0.03294990       8
H               3.49377000      1.98980000      8.09349000      0.01789440     -0.06510290      0.02961200       1
H               4.78030000      4.50851000      7.07444000     -0.04263660     -0.02545720      0.00288781       1
O               1.80028000     20.71220000     20.01780000     -0.10792400      0.03899410     -0.18465800       8
H               0.10520700     19.64270000     19.62270000      0.04052880      0.01777790      0.01406560       1
H               2.44771000     20.20250000     21.36480000      0.07169790     -0.06367040      0.17267700       1
O               5.91088000     12.25280000      9.32719000     -0.02511300      0.04124590      0.01303280       8
H               4.97384000     13.85700000      9.59294000      0.02075690     -0.01068500      0.00257404       1
H               4.83773000     11.59790000      8.02817000      0.00550081     -0.02051420     -0.02107070       1
O               6.33689000     18.48880000     18.51200000     -0.07175550     -0.01670480     -0.05841520       8
H               4.40190000     18.82360000     18.52300000      0.03399550      0.00331725      0.02291830       1
H               6.03678000     17.71910000     16.67360000      0.02659570     -0.00111031      0.03994430       1
O               6.81327000      6.30737000      5.84304000     -0.00496118      0.03217920      0.08339450       8
H               7.60817000      5.26641000      4.72438000      0.02689290     -0.04556230     -0.05568510       1
H               7.88006000      6.27638000      7.41775000     -0.00264028      0.00557306     -0.01794350       1
O              17.34080000      3.16076000     11.26650000      0.03232620      0.01430330     -0.01078450       8
H              19.31840000      3.03620000     11.57860000     -0.06261090      0.00653606     -0.01978650       1
H              16.85750000      4.77426000     10.38650000      0.01685490     -0.03483450      0.02145330       1
O              18.33260000      5.34266000     19.70260000      0.00424737     -0.01798190      0.01374990       8
H              19.10090000      5.24098000     18.13170000      0.01140650      0.00383662     -0.03211940       1
H              17.06760000      6.61929000     19.69960000     -0.00785220      0.01792970      0.00614415       1
O              16.04290000     17.71180000     19.27960000      0.17967200     -0.13836900      0.00886052       8
H              15.69170000     16.54650000     17.97590000      0.00166147     -0.01372250     -0.00804781       1
H              14.87040000     18.72330000     19.28810000     -0.17152600      0.15039000      0.00329837       1
O               0.89053900      9.62670000      0.03897500     -0.02740570     -0.01386610      0.03484230       8
H               1.34734000      8.81723000      1.69345000      0.00176265      0.01610280     -0.03811190       1
H              -1.00956000      9.73525000      0.36119200      0.03045450      0.00786596     -0.00926458       1
O               5.67952000     17.39050000      0.66991100     -0.00253060      0.04379530     -0.05799230       8
H               5.82836000     17.70670000     -1.25332000      0.00279522     -0.01179540      0.05005510       1
H               6.11874000     15.67540000      0.81106300      0.00277023     -0.02123050      0.00451685       1
O              12.09190000     16.12550000     22.79210000      0.00627006      0.02455130      0.04317000       8
H              11.88650000     17.27670000     21.40610000      0.00135123      0.00617644      0.00416103       1
H              12.46280000     17.33380000     24.33350000     -0.01939670     -0.02727220     -0.04424160       1
O              16.54300000     15.33330000      5.12392000      0.02779590     -0.00937628     -0.01853780       8
H              15.13700000     15.47920000      6.20536000     -0.03379020      0.01470150      0.01387130       1
H              17.73640000     14.70740000      6.34991000      0.00721751     -0.00122743      0.00255284       1
O               7.37356000      2.56723000      2.62945000      0.02316410      0.01918450     -0.08513820       8
H               7.76739000      2.89286000      0.40406500     -0.02474130     -0.02636110      0.10621300       1
H               6.17583000      1.15769000      3.17624000      0.01774840      0.00950756     -0.03020080       1
O               4.96194000     21.70820000      8.65958000     -0.05821380     -0.01952260      0.10519200       8
H               4.95150000     21.77590000      7.01545000     -0.00913631     -0.00429148     -0.13312800       1
H               6.61960000     22.03950000      8.95736000      0.06834600      0.01976610      0.02445250       1
O              20.11620000     17.97830000      2.45054000     -0.00602740      0.12956800      0.14838100       8
H              19.16460000     17.07140000      3.70227000     -0.00959476      0.00530919      0.01214450       1
H              20.10560000     16.90980000      1.29973000      0.01000110     -0.13505700     -0.16510300       1
O               5.49364000     12.43600000      0.15556000      0.35084100      0.03666110      0.16038800       8
H               5.26853000     11.93000000      1.84545000     -0.00304180     -0.01710460      0.03269450       1
H               4.21173000     12.32020000     -0.51988300     -0.35022700     -0.03421730     -0.18775600       1
O              20.69100000     13.50630000     16.51680000      0.03136140      0.05935930     -0.06337690       8
H              19.21000000     12.52860000     16.81890000     -0.01967790      0.00813913     -0.00846825       1
H              20.50600000     14.71740000     14.91930000     -0.00733977     -0.06140420      0.05488450       1
O              18.85700000     15.68210000      9.37647000     -0.13415200     -0.12637200      0.04651200       8
H              20.16390000     16.59670000      9.24769000      0.14542900      0.10299700     -0.00946708       1
H              19.13390000     14.40240000     10.76450000     -0.01668940      0.01641810     -0.02739480       1
O               4.91517000     21.46480000      3.42221000     -0.04816310      0.04409220      0.04034440       8
H               5.44406000     20.21940000      2.30332000      0.00657447     -0.04146770     -0.02335340       1
H               3.00709000     21.46630000      3.69267000      0.03065360     -0.00421568     -0.01120660       1
O              22.01880000      1.41211000     10.84610000      0.00403159     -0.00350407      0.03305780       8
H              22.69050000      2.50032000      9.61321000      0.00636189      0.01181920     -0.02214150       1
H              23.29240000      1.53053000     12.24110000     -0.00524513     -0.00850870     -0.00877073       1
O              18.89280000      2.45232000      5.16328000      0.17722100      0.06897540     -0.07743100       8
H              17.52640000      1.88536000      5.75418000     -0.15287500     -0.03995850      0.06541720       1
H              19.03040000      4.26671000      4.64154000     -0.02245200     -0.03654890      0.02233970       1
O              11.03310000     21.59600000     13.52010000      0.24642100     -0.10330600     -0.29026600       8
H              12.67790000     22.55510000     13.44690000     -0.01985850     -0.02550700      0.01648830       1
H              10.17980000     22.05440000     14.61320000     -0.22432900      0.12426200      0.29095700       1
O              14.50420000     12.44160000      1.70568000     -0.00740217     -0.06412700     -0.01921400       8
H              15.59900000     13.34530000      2.77740000      0.00325238      0.03021610      0.02707510       1
H              12.96290000     13.26510000      1.29896000     -0.00175473      0.02291750     -0.00559122       1
O              14.12800000      1.64068000     20.89560000     -0.12544300     -0.06080100      0.10545500       8
H              15.52680000      1.93512000     20.13980000      0.13524700      0.03073260     -0.06943610       1
H              14.47380000      0.52249900     22.44340000     -0.00069521      0.02736370     -0.03826090       1
O               9.67018000      2.46812000     18.98650000      0.05408560     -0.05020480      0.00172821       8
H               9.15874000      3.99325000     19.60530000     -0.01524390      0.05372350      0.01718440       1
H              11.52340000      2.38598000     19.68540000     -0.04330500     -0.00369545     -0.01670300       1
O              20.90470000     17.96560000     18.91050000      0.04738320     -0.04654960     -0.04432570       8
H              19.26440000     17.80960000     19.70530000     -0.00740832     -0.01020230     -0.01512790       1
H              21.35140000     16.38510000     17.55150000     -0.03530670      0.05539760      0.07446820       1
