192
TotEnergy=-1103.45017000 cutoff=-1.00000000 nneightol=1.20000000 pbc="T T T" Lattice="24.77707000       0.00000000       0.00000000      -0.00000100      24.77707000       0.00000000      -0.00000100      -0.00000100      24.77707000" Properties=species:S:1:pos:R:3:force:R:3:Z:I:1
O              26.41990000     -3.18448000    -35.36430000      0.00779526     -0.00043812     -0.00903468       8
H              24.65330000     -2.85041000    -35.02330000     -0.00091869     -0.02018080     -0.00428088       1
H              26.88210000     -4.55598000    -36.60280000     -0.01721550      0.02151380      0.01470760       1
O              50.68080000     47.93500000     -1.19683000      0.04557260      0.00951785      0.01485720       8
H              52.08340000     48.80940000     -0.07311600     -0.04350680     -0.03264600     -0.05290700       1
H              51.44660000     47.27790000     -2.83056000      0.00425373      0.02551610      0.02930860       1
O              14.16220000      2.00172000     16.74340000      0.02854020      0.02043430      0.02348140       8
H              14.79010000      2.14235000     18.53340000     -0.01482030      0.00697207     -0.02871750       1
H              12.67510000      1.02119000     16.75240000     -0.01135020     -0.02360460      0.00251282       1
O              -4.68538000    -12.11900000     -1.19631000     -0.02352690      0.05218990      0.02794390       8
H              -3.72246000    -12.62270000     -2.65975000     -0.00084935      0.00109012     -0.01458980       1
H              -5.14180000    -10.22580000     -1.14673000      0.02778940     -0.04405720     -0.01547820       1
O               5.64369000     33.16230000     19.34620000      0.01962450      0.01791520      0.00079579       8
H               6.95692000     34.47840000     19.73900000     -0.01291850     -0.03234180     -0.00234486       1
H               6.47883000     31.68770000     18.68040000     -0.00076666      0.01307440      0.00136796       1
O              -6.09879000     10.78900000      7.61954000     -0.00451302     -0.03706320     -0.00718555       8
H              -6.78781000     12.09890000      8.62834000     -0.01006340      0.02558430     -0.00000579       1
H              -7.54286000      9.75038000      7.02727000      0.01361520      0.01481830      0.00164882       1
O              45.24180000     28.83170000     13.59460000      0.05353840     -0.03282140     -0.02936800       8
H              47.10170000     28.26000000     13.19970000     -0.03309690      0.02620860      0.01843880       1
H              44.53910000     27.36600000     12.72860000     -0.01861640      0.01190260      0.00939856       1
O               0.84254200    -33.52940000      7.02034000      0.09868940     -0.10883300      0.05991740       8
H               1.88458000    -33.21260000      8.64729000     -0.02023420     -0.00302527     -0.04039360       1
H              -0.06716400    -32.16090000      6.87640000     -0.07253740      0.11114600     -0.01669990       1
O              32.85560000    -34.50020000     18.13060000      0.09564730     -0.01685080      0.08140090       8
H              31.47000000    -35.17850000     17.45050000     -0.07819860     -0.03008330     -0.03570620       1
H              33.43230000    -35.81680000     19.54660000     -0.01368020      0.03469960     -0.04360440       1
O               8.63868000    -27.51690000    -25.72600000     -0.06754160      0.02687960     -0.04668360       8
H              10.28270000    -27.86630000    -25.51390000      0.08453510     -0.01045270      0.01645700       1
H               7.81360000    -27.96450000    -24.22810000     -0.01640590     -0.01882930      0.03624400       1
O             -15.17310000      3.71564000      8.97154000      0.00092132     -0.00195627      0.00079787       8
H             -14.25180000      3.94766000      7.25840000     -0.00809562      0.01034100      0.04602810       1
H             -14.45550000      4.19060000     10.68140000      0.00663039      0.00207034     -0.04197380       1
O             -13.34410000     29.60380000     53.82200000      0.00796059      0.01650280      0.02874970       8
H             -14.80480000     29.23710000     52.89050000     -0.04147200      0.00757402     -0.01098540       1
H             -12.23840000     28.45860000     53.10540000      0.04338520     -0.02864510     -0.01558580       1
O              11.55390000    -34.31680000    -14.97810000     -0.03567820     -0.05426560      0.01531450       8
H              10.91940000    -35.79360000    -16.02300000      0.01630850      0.02745730     -0.00261592       1
H              10.88550000    -35.14190000    -13.41170000      0.02128270      0.02848950     -0.01223890       1
O              28.28570000     14.00790000     39.33420000      0.01086160     -0.04001820     -0.01830480       8
H              26.51550000     13.47350000     39.15660000      0.00627556      0.01084490      0.00558442       1
H              29.20590000     12.45180000     38.73640000     -0.01470730      0.03375300      0.01088390       1
O               0.55605500      3.96086000      2.13517000     -0.04206750      0.12482900      0.00547766       8
H               1.81782000      2.96018000      2.68976000      0.05654480     -0.04939120      0.02776450       1
H               1.05745000      5.81081000      2.81204000     -0.01654910     -0.07122100     -0.03141700       1
O             -30.54880000     23.13170000     30.83420000      0.06364060      0.05874950      0.03562970       8
H             -30.31340000     24.93230000     30.31470000      0.00175098     -0.02848110     -0.00143137       1
H             -31.89920000     22.58250000     29.96340000     -0.06101870     -0.02780560     -0.03790530       1
O             -33.93940000     13.22750000     25.76670000      0.02724520     -0.03631810     -0.05050000       8
H             -35.18260000     12.89620000     24.35160000      0.02969780      0.00607384      0.03133680       1
H             -32.09260000     12.63340000     24.90450000     -0.06016550      0.01246600      0.02147020       1
O             -21.58100000     65.23420000    -22.42410000     -0.02981440     -0.03042110      0.04207860       8
H             -22.26640000     65.25630000    -20.54900000      0.01930780      0.00594600     -0.04739210       1
H             -22.01640000     63.43310000    -22.92400000      0.01220420      0.03135830      0.00305708       1
O              70.94680000     22.62670000     40.33890000     -0.00242013     -0.02575940      0.04853710       8
H              70.16260000     23.41610000     38.92540000     -0.02671450      0.00130592      0.00542402       1
H              69.80830000     22.16820000     41.85920000      0.02334340      0.02394050     -0.05319710       1
O              56.24610000    -19.70760000      2.96010000      0.00435249     -0.06445660     -0.07042140       8
H              55.31190000    -19.69050000      4.40665000     -0.02752330      0.00246762      0.05342300       1
H              55.66940000    -21.52050000      1.97639000      0.01791250      0.06883970      0.01081590       1
O              28.57600000     18.19290000    -13.78080000     -0.00656062      0.03319970     -0.03572090       8
H              30.00400000     19.18380000    -14.60440000     -0.01828000     -0.03929810      0.03036310       1
H              28.72740000     16.97250000    -12.44940000      0.02702130     -0.00791304      0.00635837       1
O             -13.04180000      5.07448000     63.26600000      0.03410690     -0.03361520      0.03974560       8
H             -12.58230000      6.67043000     63.90850000     -0.00517451      0.03231100     -0.00448219       1
H             -11.75780000      4.10637000     64.55730000     -0.03266910      0.00218998     -0.03151750       1
O               5.63000000      1.70666000     -0.47251600      0.00357478     -0.02649780     -0.01635070       8
H               5.10954000      2.27122000     -2.27183000      0.02174520     -0.01697820      0.03680570       1
H               6.77836000      0.14526100     -0.39732400     -0.02178270      0.03835230     -0.02423450       1
O              45.03400000      2.89358000     28.03310000     -0.04732560      0.04289310      0.03592460       8
H              44.47030000      4.54072000     28.80930000     -0.00035316     -0.03798790     -0.01448310       1
H              46.65210000      3.43106000     27.59530000      0.04843100     -0.00475393     -0.01668090       1
O              -0.65798300     60.70370000     30.63760000     -0.05243890     -0.01531430      0.01860400       8
H              -2.56288000     60.45280000     31.04700000      0.05194100      0.01225030     -0.01309110       1
H              -0.22925700     62.37810000     31.26640000     -0.00430135      0.00667573     -0.00097140       1
O              10.76460000     36.41530000     14.56400000      0.03212840     -0.12582100     -0.12869300       8
H               9.45682000     36.03910000     13.14810000      0.02949280      0.00260317      0.04370280       1
H              10.06890000     37.63630000     15.35920000     -0.06404800      0.12034900      0.08767040       1
O             -16.08840000     19.96770000     18.66160000     -0.00064252      0.02959360      0.02189110       8
H             -15.49340000     18.27200000     18.66260000     -0.00968744     -0.02081730     -0.00215486       1
H             -16.18110000     20.48630000     20.44110000      0.00524723     -0.00313677     -0.01093520       1
O              32.79070000     34.75600000     51.22150000     -0.08251990      0.02664340     -0.00145797       8
H              32.54870000     33.01150000     51.97320000     -0.00574865      0.02966750     -0.02414100       1
H              30.82980000     35.58430000     50.93440000      0.08058810     -0.04852220      0.01960120       1
O              14.73980000     34.67790000     20.42670000     -0.02824620      0.05007430      0.01574890       8
H              15.72270000     35.62700000     19.25760000      0.00202425     -0.00108293     -0.01253690       1
H              15.37200000     33.06700000     20.56210000      0.01487160     -0.04804690      0.00179396       1
O               3.75208000    -27.22870000     19.09240000      0.06266280     -0.03562610      0.02930160       8
H               2.47960000    -27.73460000     17.95490000     -0.00480609     -0.01013840     -0.02679200       1
H               5.26684000    -28.54520000     19.02360000     -0.05273710      0.03963530     -0.00886292       1
O              -0.65009000     18.95900000      1.02203000     -0.01076440      0.02485440     -0.04426120       8
H               0.48407400     17.58620000      1.12211000      0.02154400     -0.02782160      0.01205650       1
H               0.06400700     19.96640000     -0.41850600     -0.01080460      0.00282504      0.03027000       1
O               0.75568100      2.14059000     12.49310000     -0.00537825     -0.07015420     -0.01268800       8
H               1.66709000      2.05733000     10.83840000     -0.01129030      0.00807659      0.02769790       1
H               0.53097800      0.18565700     12.94840000      0.01925350      0.06720350     -0.01334270       1
O             -34.25820000     54.18810000    -28.37220000      0.02665100      0.06696950     -0.19177200       8
H             -32.40640000     54.64680000    -28.90590000     -0.04357140     -0.01631910     -0.00805744       1
H             -34.02100000     53.79640000    -26.85970000      0.01485320     -0.05796620      0.19552900       1
O               4.17857000     53.43420000    -16.38840000      0.01804000      0.00489588     -0.01096650       8
H               5.98519000     54.02540000    -15.76950000     -0.04533320     -0.03918940     -0.04008660       1
H               3.93409000     52.19790000    -17.92060000      0.03090840      0.02924890      0.04785520       1
O             -39.40710000     35.62320000      7.02773000      0.02220040     -0.01358810      0.01113350       8
H             -37.85770000     34.65300000      6.43395000     -0.03167550      0.02492580     -0.00420906       1
H             -40.33980000     36.31090000      5.63081000      0.00698683     -0.00946068     -0.00949596       1
O              16.23860000     36.27850000     15.48180000      0.03811410     -0.02099370     -0.07209900       8
H              17.90660000     35.87250000     14.29500000     -0.05875250      0.01450720      0.04457900       1
H              14.82280000     35.98220000     14.24790000      0.02127240      0.00861653      0.03163220       1
O             -17.92390000    -14.46350000     11.25100000      0.06275310     -0.01052400     -0.02346570       8
H             -16.71180000    -14.97500000      9.85185000     -0.02376930      0.01545890      0.02461680       1
H             -19.52210000    -14.66490000     10.49680000     -0.03196210     -0.00259680     -0.00667184       1
O             -45.33460000      2.74642000     18.91720000      0.04258580     -0.04664950     -0.03143890       8
H             -44.54500000      0.98791900     18.36720000     -0.03768370      0.05175690      0.02273580       1
H             -44.65330000      3.83007000     17.49550000     -0.01174290     -0.01131790      0.01975700       1
O             -22.72940000    -15.61650000     34.98460000     -0.01336600     -0.00535482     -0.01707130       8
H             -22.49740000    -17.27630000     34.29790000      0.01097800     -0.01612740      0.00950469       1
H             -23.82270000    -15.05290000     33.62340000     -0.00080375      0.01611890      0.00410170       1
O              15.61130000     17.71550000     28.55040000      0.00145527     -0.00054020     -0.01345930       8
H              16.49230000     17.45390000     30.08870000      0.00414672      0.00050354      0.02422670       1
H              15.34910000     15.99850000     27.95740000     -0.00375256      0.00333057     -0.00789454       1
O             -21.47300000      0.22673400     29.58420000     -0.05366130     -0.02915030      0.00024544       8
H             -20.88960000     -1.10119000     28.44960000      0.01560310      0.00004595      0.00851618       1
H             -23.14010000     -0.63631900     30.07400000      0.03583960      0.01924590     -0.00429439       1
O              45.28960000     10.21810000     37.19530000     -0.01551820     -0.06028920     -0.04536530       8
H              45.67730000      8.38667000     37.53330000     -0.00098125      0.03316840      0.00905185       1
H              44.68800000      9.90063000     35.33990000      0.01228800      0.02260450      0.03764040       1
O              -7.57860000    -28.26910000     -4.13113000      0.03848260      0.13046100      0.09613670       8
H              -6.56073000    -28.85610000     -2.72304000     -0.00091821     -0.01149230     -0.00659139       1
H              -7.98594000    -29.45820000     -5.14206000     -0.03843450     -0.12273100     -0.09365210       1
O              56.05500000    -19.49460000     -9.66444000     -0.02812760     -0.01300720     -0.03541850       8
H              57.93280000    -19.58110000     -9.70173000     -0.02422230     -0.00428391     -0.02607940       1
H              55.00390000    -19.84420000    -11.31630000      0.05302770      0.01140360      0.05595590       1
O              10.91700000     -1.23972000      9.89114000     -0.00252717      0.01927170     -0.00852504       8
H              10.19780000      0.42309100      9.45990000      0.00498260     -0.00306538     -0.00137116       1
H              11.20660000     -1.07978000     11.66370000     -0.00138590     -0.01072920      0.01369660       1
O             -35.54930000     -2.74309000     50.10250000     -0.01072080      0.01513000     -0.01697300       8
H             -34.60290000     -3.39902000     48.68630000      0.00245153      0.00006993      0.00175017       1
H             -35.12410000     -3.67484000     51.56230000      0.00531416     -0.02128440      0.01162630       1
O              15.49140000     -7.28767000     -9.02063000     -0.05427340     -0.08961160      0.05500050       8
H              14.98570000     -9.31314000     -8.25897000      0.02464590      0.09374260     -0.04079410       1
H              17.21900000     -7.52116000     -9.30032000      0.03216560     -0.00416019     -0.01313990       1
O              20.28520000     17.43020000     12.85070000     -0.00501229      0.05860290      0.00279455       8
H              20.89260000     19.10260000     13.48660000     -0.01894010     -0.02067470     -0.01772450       1
H              21.44630000     16.39400000     13.71300000      0.01850260     -0.02995390      0.01362220       1
O              12.16760000     22.14850000     -9.23862000     -0.01677890     -0.01739980      0.02792550       8
H              11.20080000     21.18630000     -7.85113000      0.01599390      0.02330690     -0.03551910       1
H              13.84110000     21.42920000     -9.24826000     -0.00604614     -0.00175315     -0.00008692       1
O              23.95540000     45.40740000     30.38040000     -0.08526240      0.03937860     -0.01508000       8
H              22.09850000     46.18540000     30.71000000      0.06426540     -0.02512280     -0.00085374       1
H              23.65480000     45.09980000     28.51040000      0.02215340     -0.00203974      0.02699490       1
O             -10.36290000      9.14261000      4.61396000      0.05346660      0.08999300     -0.01094810       8
H              -9.59244000     10.43640000      3.23696000     -0.03147900     -0.03292330      0.04241550       1
H             -10.77510000      7.73584000      3.70945000     -0.01960780     -0.05062940     -0.02893410       1
O              17.70550000    -25.94920000     11.37940000     -0.05969800      0.03153110     -0.03109380       8
H              18.33330000    -25.47700000      9.65464000     -0.01569410     -0.01841560      0.02669050       1
H              15.69970000    -25.62950000     11.24200000      0.07948900     -0.01359200      0.00570233       1
O              -1.77172000     13.88980000     39.75040000     -0.00755548     -0.00099202     -0.05825860       8
H              -1.74916000     13.32300000     41.44170000     -0.01392230     -0.02096240      0.01599440       1
H              -2.78980000     12.75990000     38.54010000      0.02762930      0.01196450      0.04165900       1
O              44.06960000     43.40530000     -0.32096600      0.01547570     -0.02875720      0.05887970       8
H              45.94010000     43.46470000      0.16967100     -0.02630990      0.00102729     -0.01224440       1
H              43.32130000     42.72810000      1.35931000      0.00614609      0.02460080     -0.04620550       1
O              22.40730000     10.64910000    -30.42960000     -0.00189019      0.04348070      0.00677176       8
H              24.30140000     10.47350000    -30.14000000     -0.03676930     -0.03561480     -0.00240375       1
H              21.20180000      9.46023000    -31.10980000      0.02790170     -0.01109300      0.00381385       1
O             -18.85130000     45.35590000      3.30100000      0.04585210      0.04757400      0.08262320       8
H             -19.31670000     43.85980000      2.53549000     -0.01329930     -0.04728930     -0.00545587       1
H             -17.95410000     45.05530000      5.23980000     -0.02970160     -0.00621952     -0.07814350       1
O               8.62202000    -29.94260000     32.65190000     -0.00308127      0.03812850      0.01997270       8
H               9.78306000    -30.92050000     33.73340000     -0.00996861      0.00027676     -0.01732680       1
H               8.95822000    -28.11500000     33.23270000      0.00431153     -0.04189290     -0.00571537       1
O               2.12367000     35.44610000      1.56383000      0.05977340      0.01450540      0.02459630       8
H               1.08867000     35.58440000      2.99242000     -0.02777820     -0.00181784      0.02507540       1
H               1.25885000     34.96580000      0.14612300     -0.02759450     -0.01757020     -0.05239040       1
O              -7.96502000     -8.77324000      8.88740000      0.13841300      0.04157890      0.01887830       8
H              -9.52015000     -9.27920000      9.21838000     -0.10282600     -0.02233440      0.03249040       1
H              -7.00526000     -8.16129000     10.52220000     -0.03311410     -0.01734580     -0.04821830       1
O              -5.15844000      5.17618000     18.73070000      0.02374880     -0.01473040     -0.00119491       8
H              -3.86161000      4.14752000     19.81780000     -0.02849160      0.02753100     -0.05154820       1
H              -5.24799000      4.90558000     16.78060000      0.01823710     -0.01171100      0.05573420       1
O              26.13480000    -15.98200000     -3.35102000     -0.01779170     -0.03871390      0.01349750       8
H              25.08270000    -17.57390000     -3.05515000      0.02384630      0.02990420     -0.01122380       1
H              27.78970000    -16.62470000     -3.97515000     -0.00664242      0.01155490      0.00229624       1
O              24.32590000      3.67101000     46.59400000      0.03050450     -0.01548450     -0.06426620       8
H              24.63870000      3.29606000     48.29530000      0.00529618     -0.00721964      0.02654330       1
H              25.75360000      2.74732000     45.58070000     -0.04203440      0.03052700      0.02680300       1
O              15.52750000     26.88020000     50.63830000     -0.04784240     -0.00736880     -0.00045451       8
H              17.25390000     26.72520000     50.93790000      0.03279160     -0.00554521      0.00651810       1
H              14.78720000     25.15350000     50.47630000      0.01383820      0.01668900     -0.00243527       1
O             -15.18230000     10.95570000     21.33280000      0.01065910      0.00441702      0.07318080       8
H             -13.35840000     10.23720000     21.41730000     -0.04363190      0.02036080     -0.00689923       1
H             -15.92310000     11.06890000     23.28680000      0.03614570     -0.01827910     -0.06695130       1
