192
Lattice="23.46511 0.0 0.0 0.0 23.46511 0.0 0.0 0.0 23.46511" Properties=species:S:1:pos:R:3:force:R:3 TotEnergy=-1103.13678 cutoff=-1.0 nneightol=1.2 pbc="T T T"
O        8.27298000      16.34960000       2.25979000      -0.01889800       0.01628290       0.03184930
H        6.99356000      17.83580000       2.22769000       0.01317300      -0.03435910       0.00510929
H        8.74930000      16.01930000       4.06429000      -0.00001812       0.01450040      -0.03348830
O        8.20028000       4.21459000       6.57359000       0.04621480       0.06830330      -0.01756840
H        7.24876000       5.51099000       7.77079000       0.00177822      -0.02521340      -0.03608460
H        9.44802000       5.51221000       5.44206000      -0.04965740      -0.04374210       0.03925110
O       22.11269000       1.17249000       2.76261000      -0.03501640      -0.07566170      -0.03531430
H       22.21603000      23.02110000       1.58339000       0.00228249       0.07543570       0.04447300
H        0.11577000       2.14359000       2.68767000       0.03553070       0.00997261      -0.00679223
O       12.81330000       9.14973000      23.25030000      -0.07291650      -0.02117680      -0.03772310
H       13.03320000       7.68316000      22.02710000       0.00596046       0.02859460       0.02239150
H       10.79880000       9.46103000      22.91610000       0.06099990       0.00002697       0.01808510
O       18.44530000       9.95296000      11.05640000      -0.09799390      -0.06923800       0.01402360
H       16.90040000       8.69227000      11.98860000       0.07686500       0.05485020      -0.02768690
H       17.53540000       9.54046000       9.44253000       0.02584820       0.01904900       0.01416980
O       15.74020000       3.47166000       2.35199000      -0.10126300       0.12667200      -0.08157750
H       17.03340000       2.57289000       2.73599000       0.12357300      -0.08475080       0.03433180
H       16.33790000       4.69213000       0.85329000      -0.01935140      -0.04151930       0.04485000
O       17.77858000       4.40248000       8.52950000       0.00893474       0.00156023      -0.02044950
H       17.19832000       3.73014000      10.05980000      -0.02755420       0.00833325       0.03703480
H       18.80573000       2.98015000       8.13459000       0.01806920      -0.01008510      -0.01976170
O       22.03620000      14.05240000      21.59000000      -0.01786250      -0.00656932       0.11059100
H       22.79110000      14.95350000      23.13830000      -0.00875020      -0.01482890      -0.06468500
H       22.65550000      14.36590000      19.99600000       0.03055540       0.02379810      -0.04198700
O        0.68078200      14.05091000      16.63830000      -0.01282110      -0.04178650       0.04959560
H        0.02193200      12.26971000      16.42650000       0.00802210       0.03410280      -0.01893970
H        0.93794100      15.16476000      15.27490000       0.00386242      -0.00237992      -0.02605660
O       22.14070000      15.97570000       5.11457000      -0.02623630      -0.10020300      -0.09737390
H        0.13949000      14.82610000       4.28042000      -0.01233310       0.04473140       0.02957880
H       20.85460000      14.82800000       3.79442000       0.03548450       0.06031750       0.06879290
O        5.02253000       7.14009000       8.74159000      -0.04701350       0.04699270      -0.01970690
H        3.15766000       6.87969000       8.08599000       0.05099590       0.00751907       0.02144060
H        5.26460000       9.03539000       8.42319000      -0.01157700      -0.04452980       0.00467558
O        3.85033000       3.73099000       2.85143000       0.02075780       0.00334755       0.06295490
H        5.02479000       3.16609000       4.33106000      -0.03007540       0.02025200      -0.04468420
H        3.55435000       5.60819000       3.20301000       0.01402850      -0.03442210      -0.01465410
O       18.00896000       8.97897000       5.32315000       0.01070880      -0.02001470      -0.03604900
H       18.86160000       9.15235000       3.60078000      -0.01420500       0.00410637       0.03252660
H       17.67630000       7.15721000       5.37962000      -0.00174267       0.01788180       0.00749324
O       22.12950000       9.01432000      16.73280000       0.00618516       0.04288200       0.05132580
H       21.99950000       7.86751000      15.35521000       0.01382170      -0.02407660       0.00071437
H       23.04250000       8.59360000      18.40320000      -0.02257900      -0.01973640      -0.05520350
O       19.34960000       1.51009000      18.76400000       0.05114990       0.00765682       0.04754570
H       19.36180000       0.36089000      20.21890000      -0.00369812       0.00202466      -0.01750210
H       17.90490000       1.32019000      17.83400000      -0.05525770      -0.01562950      -0.02557650
O       11.48090000      17.32570000      22.26930000       0.01802470       0.02695330      -0.03805880
H       12.50480000      15.90170000      21.91513000       0.01310440      -0.01371330       0.00648667
H       10.38150000      16.95480000       0.19032400      -0.01873200      -0.00911218       0.02135900
O       20.11050000      19.63821000      11.54940000       0.13580700       0.05146930      -0.06575900
H       19.13580000      18.53594000      12.26550000      -0.10218600      -0.08901170       0.06343210
H       21.56670000      18.36740000      11.24650000      -0.02876680       0.04141560      -0.00188515
O       14.29420000       0.53972700      16.45570000       0.01962170      -0.02791460      -0.04146900
H       14.37110000      22.30472000      15.31040000      -0.01300970       0.04865290       0.07205870
H       13.66340000       0.99873600      18.16410000      -0.00184717      -0.03734060      -0.02263590
O       15.23590000       4.22459000      13.29270000      -0.06912830      -0.03541340       0.00431225
H       15.10609000       2.56589000      14.22880000       0.01730380       0.02549640      -0.00005460
H       13.27150000       4.08729000      12.93540000       0.05881250       0.01891240      -0.00402669
O       10.58460000       4.86257000      11.25410000       0.01280700      -0.00638532      -0.01406990
H        9.73436000       4.36028000       9.71570000       0.00835685      -0.01004340      -0.01336850
H        9.16515000       5.16129000      12.25000000      -0.03140210       0.00998381       0.03448900
O        5.02272000      11.38091000      19.48920000      -0.01397130       0.01185530       0.00015686
H        3.60496000      12.61431000      19.20000000       0.03911570      -0.02013910      -0.01454730
H        6.42366000      11.11361000      18.20690000      -0.03308340       0.00684333       0.01197350
O       10.31700000      17.85510000      17.09413000       0.15071900      -0.09890380       0.03566630
H       10.78520000      17.65530000      19.04017000      -0.00361739      -0.00473781      -0.04726080
H        9.03494000      18.76840000      17.39952000      -0.15007700       0.10246700       0.01254350
O        7.89579000       4.57034000      21.59278000       0.11202300      -0.04618820      -0.04247660
H        8.89820000       3.10547000      22.60405000      -0.04015190       0.05570310      -0.03471270
H        9.38193000       4.84668000      19.94161000      -0.06937890      -0.01175790       0.07712450
O       15.75170000      13.85650000      22.70770000      -0.03144250      -0.07505570       0.04099950
H       14.79090000      12.26870000       0.24409000       0.03193510       0.05774630      -0.05159820
H       16.79620000      12.89500000      21.50130000      -0.00801953       0.01599230       0.00477993
O       21.24430000       0.05659700       7.84453000      -0.01573470      -0.01869310       0.02740270
H       20.58870000      22.19317000       9.11369000       0.01665770       0.02351540      -0.04019890
H       21.17440000      22.97363600       6.08676000      -0.00985462      -0.00162736       0.01165190
O        3.31053000       8.73539000       1.97476000      -0.04942650      -0.03052940      -0.03197760
H        4.51881000       9.15098000       0.71966500       0.04207820       0.01666200       0.00406825
H        2.31187000       7.80279000       0.66095700      -0.00003247       0.00828913       0.02401110
O        8.25776000       8.83074000      16.61460000      -0.04151180      -0.00758487      -0.04701080
H        9.00158000      10.02340000      15.47180000       0.01725020       0.00743680       0.00514959
H        6.91703000       8.07764000      15.33020000       0.03850500      -0.00059413       0.05109050
O       20.77538000       9.75920000       1.18323000       0.04070850       0.02047320       0.00518954
H       22.39621000       9.83592000       2.17025000      -0.02951110      -0.00825514      -0.01627310
H       21.02256000      11.21990000       0.03232400      -0.00646505      -0.01128040       0.00221485
O       12.82250000      10.72970000      14.59470000      -0.05947500      -0.01268870      -0.05054670
H       14.23690000      10.76940000      15.56940000       0.05889940       0.00333342       0.03868080
H       13.15450000       9.66753000      13.12440000      -0.00073156       0.01749120       0.01110870
O        2.64435000      21.85400000       7.77493000      -0.06746600       0.13464000       0.18113900
H        0.98258400      23.08500000       7.54739000       0.05533020      -0.04409830       0.02541530
H        2.70374000      21.26050000       6.33323000       0.01499300      -0.09641850      -0.20663600
O        6.08665000      21.27423000      11.49150000       0.03171850      -0.00061852       0.03993550
H        5.70250000      21.48264000       9.77395000      -0.02613600      -0.00218186      -0.02127530
H        5.45425000      19.73326000      12.25590000      -0.01164430      -0.00712343      -0.01403600
O        4.97440000      19.44850000      17.50790000      -0.03518860       0.03402000      -0.00558496
H        4.22416000      21.26110000      17.13180000       0.02126860      -0.05499930      -0.00045785
H        4.00187000      18.18090000      16.50400000       0.01405700       0.02797030       0.01285810
O       17.83210000      15.28870000      13.43721000      -0.07345840      -0.05305650      -0.01582630
H       15.84880000      16.08550000      13.81292000       0.07602210      -0.02495970      -0.02490170
H       17.55860000      13.41070000      12.56381000       0.00945924       0.07215370       0.03606630
O       19.79870000      20.75839000      23.22460100      -0.07113690      -0.05075220      -0.05846260
H       21.42880000      20.29544000       0.21869000       0.03189600      -0.02680430      -0.00317563
H       19.04250000      19.19384000      22.01762000       0.04105750       0.05834850       0.03669000
O       13.10760000       6.13517000      18.51950000      -0.03146350       0.03752300      -0.07436550
H       14.43630000       5.67060000      17.21590000      -0.02927470       0.01037240       0.02755360
H       11.79750000       7.28465000      17.36700000       0.04825860      -0.04352460       0.04441120
O       12.44500000       0.48939000       6.90770000       0.02692890       0.11288200      -0.05849460
H       14.11450000       1.19049000       5.98774000      -0.05420340      -0.03855740       0.03526620
H       11.40780000       2.29019000       6.53779000       0.02457460      -0.07819200       0.02635790
O       16.21450000      14.24000000       4.35455000      -0.00165740       0.04029060      -0.05968810
H       16.30950000      14.59810000       2.33088000      -0.00150489      -0.02110050       0.06393010
H       16.48130000      12.50500000       4.69469000       0.00454103      -0.01952360      -0.00138368
O        7.43403000      11.14340000       0.21126600       0.00468377       0.01731000      -0.01235290
H        6.34469000      11.62010000      22.03105000       0.03167170      -0.00116072       0.03548720
H        8.03070000      12.58740000       1.27062000      -0.02362580      -0.01478610      -0.03022020
O       16.80320000      20.74830000       3.63404000      -0.00527041      -0.00890998       0.01868110
H       17.89380000      20.00320000       2.31552000      -0.00783740       0.00783876       0.02171190
H       16.65530000      19.69340000       5.15855000       0.00734512       0.00727782      -0.02931640
O       13.20380000       8.82125000       9.51510000      -0.02317670      -0.04974020       0.04211520
H       12.33400000       7.20284000      10.35220000       0.02200310       0.04655780      -0.02311700
H       13.33820000       8.23305000       7.83132000       0.00495733       0.00114099      -0.02241400
O       11.70570000      15.90570000       6.21789000       0.03385190       0.04050940       0.04043190
H       13.51090000      15.31850000       5.64847000      -0.03403990       0.02118320       0.01096170
H       11.78600000      17.56590000       7.51234000       0.00261569      -0.06833220      -0.04641680
O       17.58820000       6.05889000      21.14480000       0.00452325      -0.03883570       0.00569225
H       18.17370000       4.26759000      20.62280000      -0.00025990       0.05275230       0.00792027
H       18.94570000       7.08209000      21.81250000       0.00480745      -0.01353800      -0.00440122
O        4.26922000      12.51540000       7.23093000       0.03840860      -0.01530590      -0.01754110
H        6.03930000      12.92970000       7.64994000      -0.01815030       0.00187392       0.01229530
H        3.03021000      13.20000000       8.30190000      -0.00966235       0.01245480       0.01953130
O       14.51160000      18.68380000      13.95820000      -0.05326310       0.04329480      -0.00800617
H       13.48620000      19.55730000      12.56550000       0.02283600      -0.02514900       0.00059205
H       12.97270000      18.58070000      15.00370000       0.00868268      -0.01307170       0.01425220
O        1.55035000      19.73740000      22.33520000       0.04307640       0.09737580      -0.07052050
H        2.92198000      19.83380000      20.90380000      -0.02640790      -0.03855450       0.03054810
H        1.59198000      21.78440000      21.89890000      -0.01452200      -0.04940150       0.02750070
O        3.74382000       0.57839000      15.12280000       0.07383060      -0.02539540       0.00047479
H        2.04337000       0.72179000      14.82410000      -0.05519220       0.00341812      -0.00487999
H        4.36947000      22.86070000      13.77030000      -0.00028390       0.02442600       0.00997476
O       23.18479000      14.85100000      10.09320000      -0.04486860      -0.02106880       0.02623590
H       22.03888000      14.81580000       8.65745000       0.01340790       0.00942526      -0.01601140
H       21.95748000      14.13010000      11.35710000       0.03234510       0.01078810      -0.01347770
O       16.83604000      10.95280000      17.99060000      -0.01457690      -0.05084540       0.04474380
H       16.02530000       9.49623000      19.20640000       0.04163960       0.04889420      -0.05417090
H       18.57476000      10.46380000      17.46550000      -0.02202670      -0.00422760       0.01155250
O        9.43709000      12.36980000       9.21257000       0.03700490      -0.03989680      -0.08327840
H       10.73019000      13.22070000       7.77751000      -0.04447300      -0.00348458       0.05644780
H        9.74059000      10.50100000       8.57868000      -0.00716079       0.05868520       0.03449880
O        3.55378000      16.86820000      13.17510000       0.01545440      -0.05697430      -0.10403100
H        5.20770000      15.59460000      13.17580000      -0.03520480       0.03605930       0.01908020
H        2.90329000      16.29640000      11.21540000       0.01307740       0.03203240       0.08958580
O       23.11870000       7.24438000       7.27168000      -0.05685510       0.01016120      -0.00192511
H       22.15530000       5.80907000       6.49049000       0.01784900       0.03258030       0.01989180
H       21.72415000       8.49097000       7.90804000       0.04166000      -0.04359070      -0.02050480
O        2.72839000      13.99190000       2.76812000      -0.01576910       0.04172270      -0.00255694
H        2.54029000      12.46840000       1.90484000       0.00997238      -0.03180370      -0.00480565
H        3.91409000      13.81900000       4.14757000      -0.00488615      -0.01124550      -0.00337829
O       22.38530000       0.09799400      14.80370000       0.04907980       0.05158890      -0.01013930
H       21.33450000       0.68846500      16.07310000      -0.02810330       0.00847888       0.03947120
H       21.74270000      22.16840000      14.04490000      -0.03170830      -0.05803710      -0.03336640
O        8.78622000      23.17960000       2.13969000       0.01523290      -0.00522516       0.00239119
H        9.32750000      23.15170000       3.87679000      -0.00109514       0.00447789       0.00082255
H       10.27250000      22.47920000       1.31149000      -0.01534970       0.00523240      -0.00040199
O        5.55521000       5.29137000      14.33730000      -0.02610170       0.00653747      -0.00752530
H        3.98721000       6.19909000      13.69430000       0.03008440      -0.04315010       0.01111980
H        5.23941000       3.48221000      14.95130000      -0.01252510       0.03560640      -0.01790040
O       11.21070000      20.08176000      10.19120000       0.00895930      -0.01133170      -0.00318978
H       11.97740000      21.55898000       9.21930000      -0.04451530      -0.01724040       0.01343100
H        9.34680000      19.75744000      10.56240000       0.03969950       0.03724290      -0.01360950
O       17.99830000      17.78532000      18.88110000       0.18752900      -0.07491570      -0.05592410
H       16.44070000      18.05009000      18.90840000      -0.19544600       0.03773190       0.00756254
H       18.10460000      16.48389000      17.35950000       0.00809872       0.03929040       0.04912780
O        1.73849000       6.42293000      20.06200000       0.00348663       0.03212670      -0.00919006
H        1.74649000       4.63846000      20.52930000       0.01925480       0.00702006      -0.01186870
H        3.11019000       7.14992000      18.97420000      -0.01748900      -0.03353820       0.02838310
O        4.44819000      19.66650000       2.67319000      -0.00778316       0.02966970      -0.00141912
H        3.12559000      20.00911000       1.21949000       0.03318160      -0.01393530       0.02788820
H        5.29189000      21.25050000       3.18099000      -0.01186680      -0.01935660      -0.01728360
O        3.03789000       1.57089000      21.75160000      -0.01545590      -0.00806631       0.08747150
H        4.46974000       1.59879000      20.73330000       0.03337810       0.00410090      -0.01737370
H        3.75719000       1.86849000       0.26139000      -0.02324330       0.00585635      -0.07170060
O       13.09241000      23.20230000      21.86573000      -0.01057590      -0.05365530      -0.00478992
H       12.96161000      21.30780000      21.99835000      -0.00538586       0.02741550      -0.01785820
H       13.98494000      23.38110000      23.39327400       0.01883900       0.02358600       0.02136810
O       12.22220000       7.41677000       4.59381000      -0.08894540       0.12216500      -0.01088690
H       13.26920000       6.19125000       4.43815000       0.10162800      -0.12235000      -0.01245810
H       12.58180000       8.34687000       2.94895000      -0.01455510      -0.01206800       0.01927510
O       23.00830000       5.06495000      12.57170000      -0.02609790      -0.09257890       0.02460570
H       21.74880000       5.08623000      11.22510000       0.01175870       0.00662213       0.00761272
H       22.67770000       2.88897000      13.27270000       0.01409720       0.08686820      -0.02663050
O        7.46618000      14.27940000      14.02510000       0.03951240      -0.05975410      -0.06404150
H        8.78360000      15.01770000      15.02060000       0.00537307       0.01108790       0.00784296
H        8.47542000      13.22241000      12.55170000      -0.03366570       0.04228330       0.04576270
