192
TotEnergy=-1102.76110000 cutoff=-1.00000000 nneightol=1.20000000 pbc="T T T" Lattice="24.83081000       0.00000000       0.00000000      -0.00000100      24.83081000       0.00000000      -0.00000100      -0.00000100      24.83081000" Properties=species:S:1:pos:R:3:force:R:3:Z:I:1
O               3.05071000     20.81130000     10.23430000     -0.02380850     -0.03490700     -0.00537792       8
H               1.86833000     19.29340000      9.94246000      0.03735790      0.03879780      0.00194361       1
H               2.52608000     22.04780000      8.99123000     -0.00259145     -0.01550360      0.00462696       1
O              12.80720000     21.35440000      5.48499000     -0.07289040     -0.00457507      0.01740550       8
H              10.97860000     22.01820000      5.11208000      0.05506880     -0.01929170      0.01838070       1
H              13.88010000     22.06760000      4.28131000      0.02338620      0.01807930     -0.02517210       1
O              15.53010000     24.03150000      1.62159000     -0.06350480     -0.01022160     -0.02002250       8
H              16.97510000     24.84360000      2.11194000      0.06160310      0.02104340      0.02727470       1
H              14.31450000     25.39440000      1.80053000      0.00048245     -0.00922309      0.00143496       1
O              12.26110000     16.07130000     11.85860000     -0.00217007      0.04440970      0.03295240       8
H              10.94070000     15.29900000     12.84620000      0.00359990     -0.00153100     -0.00051754       1
H              12.57140000     17.75450000     12.83860000      0.00274849     -0.04277700     -0.03269790       1
O              15.17540000     15.82550000     21.49050000     -0.02031730      0.00608402     -0.01254090       8
H              16.63060000     15.74380000     22.46930000      0.04441670     -0.00647074      0.01565150       1
H              13.98910000     16.18310000     22.78620000     -0.01563180     -0.00493569      0.00465732       1
O              23.65120000      2.57829000      7.09101000     -0.01585040     -0.04342100      0.02042770       8
H              23.83520000      2.15828000      8.92121000      0.00047748     -0.00906788     -0.00492619       1
H              24.38000000      4.14298000      7.07064000      0.02277340      0.05139580     -0.01398040       1
O               3.18045000     20.53340000     24.81520000     -0.07587960     -0.10935600      0.03673200       8
H               3.24235000     18.01040000     25.40990000     -0.00223062      0.10305100     -0.03649200       1
H               1.16145000     20.47080000     24.96520000      0.07429270      0.01452270     -0.00554633       1
O               7.12047000      1.17209000     16.39260000     -0.00695246     -0.02508920     -0.01649480       8
H               6.98799000     -0.67775200     15.87620000     -0.00126872      0.01628940      0.01577090       1
H               6.26055000      1.94858000     14.97770000      0.00902388     -0.00027846      0.02654630       1
O              18.96870000     16.11140000      1.98367000      0.18829100     -0.09280370      0.00590404       8
H              19.87630000     14.12140000      3.71529000     -0.03291750      0.06060980     -0.07140710       1
H              17.47160000     16.32430000      2.56009000     -0.14705200      0.01960510      0.06101360       1
O              15.17870000     24.93700000     21.22570000     -0.00684319     -0.01161940     -0.01392040       8
H              15.19180000     23.23490000     20.48870000      0.00436053      0.01833110     -0.00452246       1
H              15.24750000     24.66300000     23.00000000      0.00839819     -0.00344919      0.01372250       1
O              18.63240000     23.59050000     16.27620000     -0.01391310     -0.03374330      0.01745690       8
H              17.97390000     24.43490000     14.90870000     -0.03659570      0.01684500     -0.03812490       1
H              20.08090000     24.58040000     16.35900000      0.04745810      0.01077530      0.01835090       1
O               7.78605000     23.07260000      5.09962000      0.02862900      0.00385974     -0.01885010       8
H               8.14390000     22.40190000      3.45494000     -0.00085146      0.01589410     -0.01637200       1
H               6.56192000     21.87250000      5.48340000     -0.03710500     -0.01959960      0.02570610       1
O              10.20740000     21.42970000     23.10860000      0.06040760     -0.04688750     -0.00814390       8
H               9.72785000     19.60050000     23.14970000     -0.01547240      0.02770500      0.00311544       1
H              12.14410000     21.27450000     22.41630000     -0.06966840      0.02334370      0.01306390       1
O               1.64100000      7.09437000      5.11929000      0.08517120     -0.06014080      0.01434020       8
H               3.00004000      6.50138000      3.81337000     -0.03597690      0.02924670      0.02313390       1
H               0.42162500      8.00537000      4.38846000     -0.06174960      0.03797490     -0.04741860       1
O               5.84565000     20.94500000     14.89430000     -0.03580120      0.02237440     -0.05759360       8
H               4.36918000     20.87670000     16.01050000      0.00409288     -0.00725836      0.00592926       1
H               4.67973000     21.18800000     13.22230000      0.04455640     -0.01160890      0.04318360       1
O              19.16490000     15.42540000     14.75290000     -0.00757311      0.02089090      0.02009210       8
H              18.58560000     15.28340000     13.05260000     -0.00255405     -0.00835329     -0.01673650       1
H              18.26250000     16.93990000     15.27430000      0.00763018     -0.01063090      0.00241983       1
O              13.94260000      9.99166000     19.35270000      0.08537540      0.04864700      0.08877720       8
H              15.51180000     11.17920000     19.22610000     -0.06353420     -0.04166020     -0.00084166       1
H              13.11600000      9.71201000     17.91030000     -0.03599630     -0.00170003     -0.08580920       1
O               0.75588300      0.98179800     11.73920000      0.03017440     -0.00829638     -0.04989830       8
H               5.12236000      2.10936000     11.95580000     -0.06344330     -0.05679430      0.00769049       1
H               1.33580000      0.00468900     10.16710000     -0.02085290      0.02649050      0.05408900       1
O               5.72142000      3.73318000     12.30750000     -0.02111080      0.05477090     -0.03652640       8
H               6.95224000      3.47080000     11.01790000      0.04749220      0.02165870     -0.02510800       1
H               4.29610000      4.90049000     11.34640000      0.00128455     -0.00965479      0.00980459       1
O               2.51021000      7.12519000      9.91138000      0.10543400      0.04470690      0.03734240       8
H               4.48338000      8.38217000      9.87800000     -0.09355440     -0.04005810     -0.00623515       1
H               1.82723000      7.62847000      8.28390000      0.00827501     -0.01330820     -0.01297830       1
O               1.42870000     10.51320000     16.06120000     -0.07641700     -0.01029010      0.03361070       8
H               0.28023000      8.92758000     16.10610000      0.03610980      0.02160190     -0.00080436       1
H               0.17470300     11.57670000     17.09740000      0.03969680     -0.01919580     -0.01242710       1
O              14.55190000     20.59650000     13.81660000      0.05783550     -0.00724146      0.08298560       8
H              14.41250000     21.84700000     12.59300000     -0.01501840      0.02865170     -0.02858940       1
H              15.87430000     21.44270000     15.07000000     -0.04406640     -0.03542610     -0.03711830       1
O              15.56550000      2.77611000      7.65673000     -0.01202600     -0.03779420      0.03932150       8
H              14.26510000      3.94654000      7.33950000     -0.01424290      0.01210260     -0.00367962       1
H              14.71900000      1.47510000      8.83675000      0.02451110      0.02999320     -0.03318730       1
O              11.28540000      3.29315000     20.45090000     -0.04128860     -0.01774570     -0.03820310       8
H              10.27760000      2.65840000     19.00340000      0.00514460      0.02316270      0.01723590       1
H              12.11100000      1.73281000     20.78570000      0.02273220     -0.01239650      0.01064150       1
O              11.33510000      6.56307000      6.83914000      0.02415860      0.05696470     -0.01286790       8
H              10.45610000      6.72409000      5.26475000      0.00075190      0.00520406     -0.00781977       1
H              12.14940000      8.25315000      7.09624000     -0.01857880     -0.02759280      0.00574368       1
O              14.14950000      6.16813000     23.02850000      0.00527278      0.00165574      0.02613280       8
H              12.80760000      7.32038000     22.81750000      0.00287471      0.03583300      0.00710001       1
H              13.19400000      4.98255000     22.11290000      0.00402424     -0.03694510     -0.02296170       1
O               1.93909000     23.07910000      5.57780000      0.00951481     -0.03267680      0.01994910       8
H               2.76332000     24.53710000      6.10247000      0.01220090      0.03149130      0.00576074       1
H               1.22721000     23.51140000      4.02896000     -0.01651980      0.00055676     -0.02761320       1
O              13.15820000     23.55580000     10.31870000     -0.06007550      0.10745100      0.07087400       8
H              11.47240000     24.30060000      9.80078000      0.03309720     -0.00308048      0.02113270       1
H              13.25670000     22.49950000      9.06832000      0.02304130     -0.09363220     -0.10782900       1
O              20.87830000     10.39780000      3.89478000     -0.02735600      0.00468063     -0.05803100       8
H              20.79690000     10.10350000      5.65588000     -0.00598464     -0.00663641      0.02274800       1
H              19.49030000      9.52216000      2.91976000      0.02874360      0.01165410      0.02559190       1
O               0.79142200     12.74570000      3.98778000      0.08608050     -0.00673128      0.06560840       8
H              -0.36943200     12.67440000      2.77581000     -0.06836710     -0.00861952     -0.06246750       1
H               1.81526000     11.20690000      3.89944000     -0.01035820      0.01786890     -0.00047021       1
O              19.30540000      9.94189000     18.25900000     -0.01669370     -0.02083430     -0.01719000       8
H              18.54110000     11.13500000     17.05820000      0.00838333     -0.01972290      0.01042500       1
H              18.45770000      8.23127000     18.35840000      0.00691743      0.03156770     -0.00099582       1
O              17.22260000     14.44570000      9.91768000      0.01805100      0.02323580     -0.04657670       8
H              15.42200000     14.84420000      9.96574000      0.01243530      0.00111682      0.00071023       1
H              17.95500000     15.34660000      8.34962000     -0.02822600     -0.02532960      0.04604180       1
O              11.09820000      9.71936000     14.84760000      0.02167270     -0.04649810      0.00519142       8
H              11.34440000      8.12752000     13.88870000     -0.00423916      0.03594160      0.01098260       1
H              10.20580000     10.88060000     13.82390000     -0.00858776     -0.00123400     -0.01234790       1
O               8.37815000      3.62596000      1.01019000     -0.05097280     -0.04307770      0.00374211       8
H               9.47869000      4.62479000      0.13648200      0.04097860      0.02355950     -0.03552340       1
H               7.45033000      2.45403000     -0.32825200      0.01521750      0.01347730      0.03231720       1
O               2.40950000     15.46820000     23.71740000      0.02973960     -0.00289934      0.02113380       8
H               1.23551000     15.29260000     22.43190000     -0.03346080      0.01276140     -0.03776990       1
H               2.34625000     13.81550000     24.36340000      0.00137827     -0.01942290      0.02183910       1
O               5.21538000      7.72319000      1.43597000      0.05453850     -0.03468440      0.06016500       8
H               6.62195000      6.35937000      1.25056000     -0.03691900      0.02204890      0.01234470       1
H               4.71667000      7.82096000     -0.24703100     -0.01635230     -0.00142658     -0.04173460       1
O               1.28285000     20.72170000     16.76290000     -0.07187170      0.00736911     -0.04655760       8
H               0.06191000     19.48170000     15.78860000      0.04611210      0.04666710      0.03384700       1
H               0.56216500     22.56610000     16.21220000      0.01429570     -0.05506360      0.02015570       1
O              22.58900000     12.27020000     21.07080000     -0.05921050      0.01998100     -0.03804140       8
H              21.41200000     10.90390000     20.19750000      0.03316700      0.04089480      0.02517820       1
H              21.49360000     13.92980000     20.75130000      0.04376190     -0.05495130      0.01751510       1
O               8.33623000     16.21830000     16.85700000     -0.02132520     -0.08222890      0.01357640       8
H               8.91498000     16.45940000     18.49810000      0.00655818      0.00405726      0.02865040       1
H               8.65966000     17.59040000     15.93850000      0.00642775      0.08018640     -0.04502150       1
O               3.85120000      3.01672000     20.35010000      0.08181060     -0.05789970     -0.05987230       8
H               4.41452000      1.46728000     21.34520000     -0.00105056      0.03052690      0.00073634       1
H               5.35479000      2.30830000     18.77480000     -0.06027360      0.03065770      0.04641550       1
O               6.27847000     24.58060000     23.33670000      0.00466890     -0.04701550      0.01286770       8
H               4.63450000     23.54890000     23.49390000      0.05197550      0.01481360      0.00736748       1
H               8.51348000     22.85610000     23.73360000     -0.03573250      0.02821050     -0.03075480       1
O              23.80890000      5.70995000     16.25570000     -0.05409040      0.02962140     -0.05719130       8
H              24.03760000      5.74864000     14.31870000     -0.00663410     -0.00730265      0.05139250       1
H              21.89350000      6.17391000     16.45090000      0.06307370     -0.01822740     -0.00075532       1
O              14.32960000     16.35800000      4.33255000     -0.00724856      0.06073200      0.03604560       8
H              13.66120000     18.03140000      5.20960000      0.02087230     -0.04332840     -0.03011720       1
H              12.82100000     15.49630000      3.99311000     -0.01877260     -0.01512290     -0.00637397       1
O               4.26942000      8.34240000     21.80040000      0.10740000     -0.11472900     -0.04915580       8
H               3.15119000      9.47421000     21.98130000     -0.12201800      0.12195700      0.01159340       1
H               3.71877000      7.26198000     20.41940000      0.00504717     -0.00112762      0.01297930       1
O               7.74459000     16.53350000     23.34770000      0.00269501     -0.03018380     -0.00417501       8
H               6.23396000     15.36900000     23.49240000      0.03292670      0.03422730     -0.00971223       1
H               9.18926000     15.43120000     22.83190000     -0.02964160      0.00463490      0.01036390       1
O              16.05350000      2.79834000     14.29230000      0.13765300     -0.04126890      0.02535110       8
H              14.91760000      3.43323000     13.28300000     -0.09377740      0.05011570     -0.06807010       1
H              17.58770000      3.08033000     13.09760000     -0.04231540     -0.00611159      0.03636630       1
O              10.07920000     12.17600000     22.77080000     -0.06343620     -0.02630350      0.05288980       8
H               8.53067000     11.49060000     23.90890000      0.06415410      0.01984910     -0.04802390       1
H              10.87970000     10.72380000     22.03000000      0.00438360      0.00336630     -0.00699864       1
O              18.65490000      4.45985000     18.89630000     -0.00708842     -0.00653895     -0.06889920       8
H              17.47560000      3.35069000     19.64200000     -0.01344270     -0.00999235      0.02929850       1
H              18.10280000      3.92400000     17.11540000      0.01561000      0.02050270      0.03713130       1
O               6.37259000     11.80590000     14.58720000      0.09125770      0.13046900     -0.11690100       8
H               6.75587000     13.50910000     15.39530000     -0.00329597     -0.03149910     -0.01919240       1
H               5.60625000     11.03290000     15.74680000     -0.09302500     -0.09589640      0.13007800       1
O              -0.41418100      2.43310000     22.39740000     -0.01096900     -0.02109200      0.00929544       8
H              -0.10938300      0.78020600     23.14300000      0.00130705      0.01243420     -0.00477753       1
H               1.16162000      2.83929000     21.50300000     -0.00343097      0.00078750     -0.00071203       1
O              16.86280000      7.39754000     11.87860000      0.00460376      0.00826790     -0.10376800       8
H              17.06110000      7.69677000      9.80587000     -0.00795489     -0.01999450      0.09172370       1
H              17.54370000      8.96276000     12.42260000      0.00328265      0.01129740      0.01006630       1
O              21.33150000     10.35340000      8.78705000     -0.07838470     -0.04063850     -0.03690020       8
H              20.33090000     11.47690000      9.71173000     -0.02347010      0.01872490      0.01280020       1
H              22.85050000     10.75290000      9.34017000      0.09929460      0.01991500      0.03258560       1
O              21.27320000     17.22660000     22.09650000     -0.00704455     -0.04059080      0.08317760       8
H              21.54650000     18.89210000     21.72650000      0.00845156      0.05548020     -0.01962550       1
H              21.22100000     17.30530000     24.09650000     -0.00697271     -0.01560000     -0.06427720       1
O              23.54240000     13.23680000     12.75880000     -0.04016120      0.08381830     -0.06214420       8
H              24.46810000     12.30850000     13.85070000      0.04836960     -0.03716640      0.05127870       1
H              23.52250000     15.07110000     13.25100000     -0.00241707     -0.04608990     -0.00418815       1
O              22.97830000     22.49180000      1.45567000     -0.02705400      0.05813670     -0.00693364       8
H              21.57680000     21.64100000      0.67210300      0.00250621     -0.00221205      0.00031512       1
H              22.31620000     24.33160000      1.38099000      0.02011340     -0.05231650      0.00613627       1
O              14.02490000     20.26390000     19.29720000     -0.03622020     -0.03240810     -0.05859670       8
H              13.24220000     19.27370000     17.58230000      0.04153100      0.04473050      0.08050880       1
H              15.11420000     19.12080000     20.23570000     -0.00433936     -0.01415080     -0.01604490       1
O              10.41320000     11.28160000      9.81936000      0.01728040      0.07605770     -0.01964640       8
H              11.20960000     13.24260000      9.73580000     -0.04238180     -0.08522610      0.00037384       1
H               8.66213000     11.32760000      9.12108000      0.03074030      0.01322750      0.00851391       1
O               9.68389000      2.46271000      7.75675000     -0.01737720     -0.00566505      0.01235850       8
H              10.20200000      4.20208000      7.21618000     -0.00715103     -0.03567770      0.01427060       1
H               8.94963000      1.47667000      6.40662000      0.00119424      0.00674121      0.00059375       1
O              21.12930000     22.61670000     20.82500000      0.01741620      0.02262260     -0.01686290       8
H              21.71380000     21.95720000     19.17850000     -0.00824396      0.01497620      0.02284990       1
H              21.52150000     24.48030000     20.78520000     -0.01020190     -0.03952970      0.00160563       1
O              19.41780000      1.46258000      4.63721000      0.04829480      0.02815200      0.00331671       8
H              18.85320000      3.20694000      5.04678000      0.00240508     -0.03841990      0.00907052       1
H              21.30000000      1.53060000      5.29328000     -0.04912870      0.00051194     -0.00970348       1
O               5.25310000     12.01070000      9.46433000      0.14543700     -0.09322650      0.03305710       8
H               5.49597000     11.55930000     11.29430000      0.00272529      0.01870790     -0.01325000       1
H               3.78159000     12.66730000      9.45606000     -0.13865000      0.06905530     -0.00950822       1
O              23.67570000      0.39255700     16.70420000     -0.03553850     -0.05520700      0.01911370       8
H              24.10040000      0.86119300     18.36580000      0.01178670      0.02068360      0.01391410       1
H              24.45310000      1.33059000     15.48210000      0.02853860      0.03573260     -0.04130190       1
O              17.87710000      5.92964000      1.95965000     -0.05012870     -0.02411970     -0.02753510       8
H              16.46030000      4.96633000      0.97144400      0.04265410      0.04425250      0.02387530       1
H              18.95330000      4.59083000      2.49111000      0.01125930     -0.00497407     -0.00551573       1
O               1.62465000     16.01350000      8.50560000     -0.04557130     -0.00772057      0.25351900       8
H               1.75496000     15.42840000      7.05574000      0.01434200     -0.07532740     -0.20426000       1
H               1.04419000     14.26510000      9.66233000      0.01258270      0.08788200     -0.04613430       1
