192
Lattice="24.5139 0.0 0.0 0.0 24.5139 0.0 0.0 0.0 24.5139" Properties=species:S:1:pos:R:3:force:R:3 TotEnergy=-1103.38663 cutoff=-1.0 nneightol=1.2 pbc="T T T"
O       21.67230000      22.09689000      20.37170000      -0.03304000       0.04193460       0.05321780
H       21.91130000      23.36951000      22.07490000      -0.02559430      -0.06060900      -0.08357950
H       19.79960000      21.70199000      19.81480000       0.05406760       0.01986470       0.02626470
O        2.11590000      22.93850000       4.48471000      -0.05632930       0.02080740      -0.12728900
H        3.73590000      22.84170000       5.04853000       0.06964170      -0.00802614       0.01270280
H        2.29890000      23.07630000       2.29488000      -0.00947829      -0.01360140       0.10357700
O       10.00150000       0.43245200      12.77180000      -0.09105210      -0.03392220      -0.01875290
H       11.54580000       1.08344000      12.97460000       0.08008440       0.02537730       0.01447260
H        9.96875000      23.11502000      12.81070000       0.01116750       0.01206680       0.00559431
O       18.13607000      15.77472000       0.75694400      -0.02670370       0.05550280       0.02674210
H       19.30086000      15.70066000      23.92362200       0.01600850       0.00738862      -0.02065790
H       17.58960000      17.76904000       1.09969000       0.00853063      -0.06935420      -0.00225729
O        7.87860000       6.75190000      19.06370000       0.05016810      -0.00598865      -0.05259430
H        7.89497000       8.25770000      20.15010000       0.00158892       0.00610961      -0.00861906
H        9.48347000       6.92790000      17.81400000      -0.06229980      -0.00650269       0.05952770
O       21.35844000      11.29850000      12.24170000       0.01252660       0.02476070      -0.05341790
H       21.33467000      10.52280000      10.51320000      -0.00943787       0.00121820       0.03320780
H       22.25461000      12.92340000      11.72590000      -0.00528658      -0.03180050       0.01981230
O       23.80200000       1.95580000      12.22350000      -0.01476030       0.09413290       0.01840520
H        0.68290000       1.94760000      13.32220000       0.01745880      -0.00126795       0.02396620
H       23.73650000       0.40170000      11.61180000      -0.00822018      -0.09113920      -0.04349060
O       23.01513000      19.22910000      11.80820000       0.02861630      -0.07594260      -0.00762468
H       23.71870100      17.31260000      11.29620000      -0.02283070       0.06625590       0.02023770
H       23.79850000      20.22130000      10.50450000      -0.00734453       0.00960272      -0.00612630
O        5.37010000      14.81460000      17.56110000      -0.03480640      -0.06749390      -0.02012550
H        6.04270000      16.41630000      17.77060000       0.02329390       0.03200400       0.02041430
H        5.77020000      13.38170000      18.66100000       0.01103510       0.03161190       0.00097787
O        8.87454000      22.19200000      21.94780000       0.03249960      -0.02847660       0.02268520
H       10.70890000      22.36000000      22.14220000      -0.00075034       0.01675510      -0.01619390
H        8.86773000      20.75550000      23.15730000      -0.03106150       0.01278620      -0.01332750
O       13.69420000       3.65478000       6.75189000      -0.08642390      -0.08005780       0.01274390
H       12.08070000       3.05800000       5.69476000       0.04591230       0.01537560       0.03723750
H       14.18460000       4.86099000       5.67683000       0.03066420       0.06757980      -0.05101340
O       13.55010000       7.15130000       2.20180000       0.00047517       0.04962030      -0.05126900
H       13.79900000       6.10380000       0.66600000      -0.00057807       0.00254893       0.01867150
H       13.51270000       8.96570000       1.37230000       0.00822864      -0.05203330       0.02846750
O       14.27580000      20.01480000       8.54160000       0.01530700      -0.04548800       0.00903229
H       14.87130000      18.12590000       8.47370000      -0.02034810       0.04616220      -0.01543810
H       12.45010000      19.97720000       8.77350000       0.00445196      -0.00122893      -0.00009542
O        0.49640000      14.49930000      10.49440000      -0.19461700       0.10723500      -0.09707500
H        0.38660000      13.90760000       8.78700000       0.00173915      -0.00056328      -0.01274020
H        1.72510000      13.84340000      11.18370000       0.19469500      -0.10000300       0.10882400
O        1.51672000       2.23406000      22.46446000       0.01285940       0.00982096       0.02466210
H        2.86303000       2.69940000      23.63716300      -0.00719725       0.01099030      -0.01187930
H        1.58030000       0.47353100      22.79860000      -0.00507342      -0.02338290      -0.00989338
O       23.32230000      22.88520000       7.99180000      -0.10879500       0.01410720       0.13629000
H       24.40990000      22.72170000       6.80900000       0.09964140      -0.01262500      -0.12486900
H       21.71580000      23.44320000       7.37000000      -0.00010841      -0.00231314      -0.00497540
O       14.87730000      12.09650000      23.92470000       0.02284810      -0.05790000       0.05906330
H       13.79820000      12.62100000      22.74450000      -0.05547880       0.01457670      -0.08098330
H       16.13310000      13.32980000      23.96980000       0.03140920       0.02927830       0.00974283
O        7.65060000      13.89090000       3.43340000       0.02496420      -0.08202120      -0.22823600
H        7.44210000      14.25030000       4.92870000      -0.03253850       0.05139690       0.23239100
H        7.25510000      12.05100000       3.19220000       0.01274780       0.03048810       0.00097136
O       17.58660000      19.51330000      12.93810000       0.02331740       0.00153453       0.01638580
H       19.41980000      19.97540000      12.64900000      -0.03835970      -0.00959380      -0.01573560
H       16.40780000      19.44660000      11.52830000       0.01925870       0.01190600      -0.00110123
O        8.67770000       3.11810000       3.73631000      -0.04249950       0.04190240      -0.05182880
H        7.00250000       3.16860000       4.55508000       0.01922800      -0.00261281      -0.00023593
H        8.15870000       4.05090000       1.97320000       0.02897390      -0.04978570       0.05703290
O        8.41540000      19.42640000       9.24740000       0.02103390      -0.02573720       0.05689600
H        8.63070000      17.47630000       9.25940000      -0.01125960       0.04229880      -0.00223939
H        8.75410000      19.84760000      11.23630000      -0.00939688      -0.02404340      -0.06585160
O       13.75990000       4.56621000      13.97950000      -0.01026620       0.01319080      -0.05653420
H       12.88620000       5.32499000      12.37520000       0.02060270      -0.01105690       0.05391160
H       15.54456000       4.48803000      13.46650000      -0.00942182       0.00101900       0.01200870
O        7.84047000       3.08630000      22.94289000      -0.00637625      -0.07888840      -0.00514411
H        7.78822000       1.26786000      22.09270000       0.00423983       0.05748790       0.03833500
H        7.78747000       4.17141000      21.54425000       0.00127819       0.02505780      -0.02770100
O       19.60890000       5.01322000       0.46530000      -0.02819170       0.01995020       0.02538780
H       18.88510000       5.69139000       2.16100000       0.03073890      -0.01677250      -0.03286290
H       21.09320000       4.04769000       0.74690000       0.00946905      -0.00072907       0.00690971
O       19.40494000      12.74040000       4.92290000      -0.01782030       0.00662131      -0.04487460
H       18.83412000      13.58180000       3.13010000       0.03752280      -0.01068340       0.05688920
H       21.26072000      12.59850000       5.38400000      -0.02407820       0.01298680      -0.01954450
O        8.48082000      14.14670000       8.84564000       0.01245470       0.01010120      -0.01645040
H        7.07997000      13.48460000       9.71740000      -0.02852800      -0.00165305       0.01891200
H        9.85098000      13.43050000       9.79684000       0.01684650       0.00014812      -0.00533402
O        6.64150000      20.16880000      17.55270000       0.00681195       0.02429220       0.01483450
H        5.09150000      21.25760000      17.37780000       0.03925360      -0.02302040       0.01000550
H        7.91820000      20.94390000      18.79370000      -0.04375840      -0.00818479      -0.01796730
O        7.69520000       8.94830000       1.55800000      -0.00605886       0.12220800       0.01165610
H        9.16550000       8.17610000       1.52740000       0.08497310      -0.06605850       0.00631421
H        6.25530000       8.07020000       1.52670000      -0.06896870      -0.06308640      -0.00964656
O       12.55550000      11.41900000      19.26360000       0.00562204      -0.01638560       0.01393890
H       12.48490000      12.50460000      17.82640000       0.00170833      -0.00093991      -0.01626660
H       13.15690000       9.59450000      18.86360000      -0.01396440       0.02850060       0.00140115
O        1.67272000      21.14980000      23.34650000       0.04626720      -0.05286310       0.05226530
H        0.82398700      20.52380000      21.93080000      -0.01737190      -0.00932706      -0.02638820
H        2.58377000      19.45990000      24.02950000      -0.02413460       0.06626560      -0.02533600
O       24.32709700      12.39380000       5.77387000      -0.04220390       0.03656370       0.11722300
H        0.19913100      10.73980000       6.07079000       0.01711080      -0.06707880       0.00967611
H        0.17152900      12.78530000       4.21388000       0.02890530       0.02383680      -0.12347600
O        3.06081000       1.05477000      15.83690000       0.04637660      -0.11697300      -0.09084180
H        2.45465000      23.85495300      16.32990000      -0.00557461       0.02662230      -0.00286700
H        2.55696000       2.30774000      16.76620000      -0.04199130       0.09716630       0.08852270
O       13.28480000       6.67660000      18.64090000      -0.00511406      -0.01419380      -0.05379380
H       13.28340000       5.73120000      16.84090000       0.01279240       0.01970650       0.05298750
H       13.80030000       5.66200000      20.06870000       0.00304985      -0.01211790      -0.01011170
O        3.95237000       3.59880000       6.72530000      -0.05479980       0.01978660      -0.12059800
H        4.51272000       3.25230000       8.24550000       0.04495670      -0.02582180       0.11559900
H        2.68311000       2.33530000       6.31280000       0.00737684       0.00223237      -0.00105615
O       12.66960000      15.34830000       2.46632000      -0.07742250      -0.00466136       0.04848220
H       13.01010000      14.22620000       1.07506000       0.00109868      -0.00450395       0.00931701
H       10.82490000      14.76500000       3.31487000       0.06330610       0.01671640      -0.04544950
O       21.80450000       8.69810000      16.69960000      -0.05329630       0.00442543      -0.00184805
H       23.39400000       8.18040000      17.23900000       0.03886590      -0.00892396      -0.00449906
H       21.64410000       9.27100000      14.96860000       0.02224420       0.01004650       0.00566984
O       11.55890000       7.55640000      10.07520000      -0.01008160      -0.03971150      -0.02183100
H       11.91560000       5.87620000       9.07489000      -0.01764450       0.05293390       0.01598720
H        9.73680000       8.05440000      10.03350000       0.02732620      -0.01912430      -0.00546777
O        2.57390000       5.91497000      18.37310000       0.02349270      -0.01081870       0.06965780
H        2.08800000       5.55604000      20.33300000       0.02327320       0.01074210      -0.08218140
H        4.54400000       5.97049000      18.33850000      -0.04925190       0.00400666       0.00629528
O        5.60720000       8.38180000      10.11010000      -0.02947550      -0.02263770      -0.03637450
H        5.24740000       6.70920000      10.80430000       0.01503890      -0.00103360       0.01116000
H        4.16630000       8.36510000       8.84900000       0.02614260       0.01774860       0.02525120
O       15.35230000      15.35610000       6.69520000       0.05377250      -0.03996700       0.01593700
H       16.91250000      14.08460000       6.41620000      -0.03710560       0.04249650      -0.00229330
H       14.31360000      15.27950000       5.17210000       0.00183083      -0.00267914      -0.00781470
O        0.70410000      21.09052000      16.57620000       0.04797340      -0.04081320      -0.05747300
H       23.80150000      21.70665000      17.33940000      -0.05259130       0.01906870       0.03149530
H        0.16660000      20.17988000      14.98420000       0.00635739       0.01927240       0.02702670
O       20.39870000       6.99041000       8.90330000       0.05276160       0.02975110      -0.03327090
H       19.42970000       6.66477000       7.41390000      -0.01572470       0.00090307      -0.00214319
H       19.83640000       6.51410000      10.47120000      -0.03031480      -0.02689600       0.04357180
O       12.89160000      14.65250000      14.83213000      -0.00746476      -0.01049720      -0.06110150
H       14.60641000      14.52980000      15.23499000       0.03708920       0.00404171       0.02055350
H       13.21690000      14.01560000      12.95150000      -0.02726590       0.00534990       0.04382670
O        5.62230000       3.55810000      11.50850000      -0.00691780      -0.04540880       0.01275900
H        7.17950000       2.52060000      11.66610000      -0.00922285       0.01310440       0.00348540
H        4.36710000       2.43420000      12.37780000       0.02168880       0.02331660      -0.00456617
O       17.63940000      23.68572300       6.20026000      -0.04315860       0.00065224       0.04618150
H       16.87540000       0.93963700       5.86370000       0.01186430      -0.05596790       0.02238900
H       16.68380000      22.72296000       7.82741000       0.02793820       0.04721250      -0.07061440
O       14.35720000      22.17953000      22.29180000      -0.05539350       0.06255800       0.00096936
H       15.17980000      21.38619000      21.02080000       0.03333910      -0.03440000      -0.05591650
H       14.90980000      21.52315000      23.79480000       0.01952350      -0.02326050       0.05381880
O        5.00792000      12.44160000      12.45180000       0.00953159      -0.04207760      -0.02636240
H        5.06127000      12.74770000      14.21880000       0.00614121       0.00411911       0.01290640
H        5.54853000      10.54810000      11.95310000      -0.02537860       0.05231830       0.01703380
O       18.35890000      14.77460000      15.20390000       0.01379760       0.00200847      -0.01331450
H       18.56000000      16.34190000      14.20600000      -0.00779893      -0.01212460       0.00921242
H       19.32990000      13.48960000      14.26540000      -0.01266520       0.00870848       0.01076630
O       10.22860000      19.30580000      13.86100000      -0.04797410       0.04277790       0.00749832
H       11.66680000      18.35170000      13.99420000       0.04084760      -0.03779900       0.00714396
H        9.24239000      19.20940000      15.42664000       0.00129254       0.00105718      -0.01284590
O        0.73060000       7.62590000       7.61460000      -0.01128300      -0.03915500       0.01860490
H       23.45590000       7.14820000       8.39420000       0.04001670       0.00798846      -0.02087710
H        1.82960000       6.03410000       7.63070000      -0.03185610       0.02910680      -0.00450398
O       18.29264000       7.67643000       4.61113000      -0.03152130       0.03298350      -0.05546130
H       19.03371000       9.45173000       3.95941000      -0.02971390      -0.04659120       0.03281770
H       16.47833000       7.50445000       3.82360000       0.04356920       0.01418040       0.02039360
O       17.14340000      19.88940000      18.32230000       0.02215910      -0.01636100       0.07955670
H       17.71330000      18.17200000      18.62770000      -0.00350820       0.01154810      -0.00023518
H       16.71880000      19.90630000      16.66940000      -0.01646700       0.00559058      -0.07769670
O        1.34595000      15.50020000      21.02840000      -0.05088250       0.00171860      -0.06359170
H       24.20497600      15.61540000      20.00830000       0.02316380       0.00130974       0.04858990
H        2.18294000      15.08490000      19.42080000       0.02542960       0.00240704       0.02257410
O       15.72760000      20.00170000       2.26063000      -0.05359760       0.02276820       0.08694120
H       16.44530000      21.08370000       3.83804000      -0.01888250      -0.02904910      -0.05216850
H       13.85220000      19.47170000       3.02632000       0.08213840       0.01153830      -0.03597230
O       20.42650000      14.61090000      20.57640000      -0.03839980      -0.05831730      -0.00498809
H       20.18310000      12.77580000      21.37300000       0.01540710       0.05507650      -0.03338150
H       19.34600000      14.54120000      18.98380000       0.02761310      -0.00314090       0.03100590
O        6.27370000      18.53660000       0.90897400      -0.00306808      -0.04564270      -0.04975370
H        6.61160000      16.73390000       1.20103000      -0.00368187       0.01928520      -0.00031025
H        6.43140000      19.33990000       2.43820000       0.00694169       0.02657950       0.04635090
O        7.06888000      21.88540000       4.85980000      -0.00499987       0.01298450      -0.02060390
H        7.41376000      21.01560000       6.35930000       0.00436306      -0.02614970       0.03985100
H        8.42148000      23.05940000       4.82450000       0.00593715       0.01453080      -0.01064150
O        2.82680000       7.25170000       1.74744000       0.02141720      -0.05021280       0.09238470
H        3.08051000       6.91110000       3.74822000      -0.01620610      -0.00277696      -0.07601280
H        2.95481000       8.98400000       1.91690000      -0.01244020       0.05354360      -0.01453390
O       13.20850000      12.47850000      10.22580000       0.02990510       0.01778730      -0.01086140
H       13.19140000      10.61730000      10.11260000       0.00820439       0.01778000      -0.00486534
H       14.52840000      13.47890000       9.11554000      -0.04268780      -0.03416580       0.01383420
O       19.34246000       4.96468000      13.64970000      -0.04565740       0.05367660       0.01427300
H       19.95078000       6.40687000      14.66320000      -0.00777075      -0.02158520       0.00017864
H       20.75325000       4.02491000      13.32880000       0.05188880      -0.04120860      -0.01036990
O        0.19250000      11.89790000       0.63215300      -0.02055800       0.01939880      -0.03482260
H        0.15620000      13.67410000      24.38182900       0.00500505      -0.05163370       0.00532505
H       23.83580000      10.71690000      23.88185400       0.02156530       0.03437020       0.02463070
O       21.31020000       9.11494000      21.87450000       0.01318380       0.02449300       0.10246000
H       20.35250000       8.37969000      23.34310000       0.01617940       0.00025107      -0.04005520
H       20.65430000       8.67799000      20.36060000      -0.03009180      -0.02374680      -0.06231110
O       15.38370000       3.42670000      22.39410000      -0.00353184      -0.05491560      -0.00047246
H       17.16180000       3.58800000      22.74330000       0.00410533       0.01228010       0.00546234
H       15.24280000       1.49190000      22.30730000      -0.00939908       0.04553970       0.00021856
O        7.89070000      11.09870000      21.38880000       0.08040150       0.00922015       0.06207120
H        9.65200000      11.68780000      20.67180000      -0.04105660      -0.01961150       0.00471340
H        8.55760000      10.66110000      23.30890000      -0.04459300       0.01674650      -0.07294280
