192
TotEnergy=-1101.66792000 cutoff=-1.00000000 nneightol=1.20000000 pbc="T T T" Lattice="22.50871000       0.00000000       0.00000000      -0.00000100      22.50871000       0.00000000      -0.00000100      -0.00000100      22.50871000" Properties=species:S:1:pos:R:3:force:R:3:Z:I:1
O               6.18263000      4.42377000     18.67280000     -0.00352056     -0.06470490      0.06161010       8
H               5.65488000      3.81266000     20.55070000      0.02231040      0.03039170     -0.07144670       1
H               4.86412000      5.43378000     17.92790000     -0.00524953      0.00859786      0.00424655       1
O              15.27040000     11.78560000     11.03610000      0.02194640     -0.02378930      0.03613110       8
H              14.24900000     12.73930000      9.97491000     -0.01892830      0.01661060     -0.01419410       1
H              14.27280000     11.82090000     12.81300000      0.02242510     -0.00295350     -0.01963240       1
O              21.05340000     11.80910000     12.17950000     -0.01452300      0.00963645      0.01462540       8
H              20.60050000     11.91520000     10.38380000      0.00275029      0.00404800      0.01533320       1
H              19.86670000     12.83410000     13.16340000      0.00242570     -0.00436570     -0.01606440       1
O              10.73330000     16.96930000     14.88330000     -0.03021430     -0.02394630      0.03750460       8
H              11.51570000     18.44870000     14.12920000     -0.01723780      0.01439460      0.00510321       1
H               7.57773000     16.66320000     16.62450000      0.05015540      0.01859000     -0.03712400       1
O               6.72383000     15.75080000     11.47280000     -0.03112230     -0.03790110      0.02760340       8
H               5.31133000     14.50150000     11.69750000      0.02589450      0.02105550      0.00269028       1
H               6.54952000     16.38470000      9.79179000     -0.00290679     -0.00941563     -0.00446312       1
O              16.15790000      5.69697000     13.70450000      0.00449220     -0.01476760     -0.03677010       8
H              16.21260000      4.30154000     12.50320000     -0.00050111      0.01122660      0.00866982       1
H              16.06710000      4.88391000     15.30490000      0.00454731      0.00418275      0.01185320       1
O              10.80700000     12.50940000      9.42180000     -0.01833400      0.03882080     -0.00391065       8
H              11.17840000     14.33220000      9.13321000     -0.00795361     -0.02963770      0.00179698       1
H               9.62426000     12.56050000     10.83630000      0.01372010      0.00376691     -0.00343787       1
O               3.13834000     12.43240000     14.11980000      0.01880890      0.00071599     -0.00675753       8
H               1.68212000     12.43870000     13.01910000      0.00311763     -0.00760100     -0.00119061       1
H               4.39643000     11.10400000     13.67350000     -0.01032950      0.01166370      0.00502664       1
O              18.35330000     13.78690000     20.46600000      0.02397870      0.06226020     -0.03542230       8
H              18.55630000     16.99520000     19.82330000     -0.03739560     -0.04449420      0.03731430       1
H              18.75090000     13.65410000     18.64420000     -0.01211190     -0.01104050      0.02661490       1
O               4.39720000     17.90100000      2.59607000      0.01155510     -0.08195700     -0.02615320       8
H               4.53674000     19.55110000      2.99803000      0.00332992      0.07529320      0.02347380       1
H               2.69087000     17.41840000      2.95421000     -0.00650060     -0.00974782     -0.00560555       1
O              18.21300000      3.21954000      8.97471000      0.03299400      0.12321600     -0.01675670       8
H              17.90680000      1.63846000      8.43389000     -0.01994590     -0.08279680     -0.03553170       1
H              18.54520000      4.41724000      7.43080000     -0.01447580     -0.04980230      0.05105540       1
O              14.12480000     10.19930000     19.78420000      0.01023140     -0.02072710     -0.01963370       8
H              16.03590000      8.98806000     19.43930000     -0.01097980     -0.00124689     -0.00267600       1
H              12.59230000      9.07801000     19.86210000      0.02112180      0.02279850     -0.00166479       1
O              13.41220000     13.48550000      0.67285300      0.02876060      0.00265351      0.01964860       8
H              12.55640000     15.01420000      0.34008000     -0.00556686      0.01086560     -0.00474284       1
H              14.54480000     13.21640000     -0.78345000     -0.00801280     -0.00917205      0.00505085       1
O               7.80251000     19.58920000     21.66990000      0.02685870      0.03261630      0.01015760       8
H               6.37465000     19.18140000     22.64630000     -0.01645620     -0.02038150      0.01035990       1
H               9.03852000     18.12470000     21.53470000     -0.01443290      0.00874816     -0.01174260       1
O               9.87055000     10.85170000      3.86659000      0.02617680     -0.03491090      0.01501080       8
H              10.77160000     12.33070000      4.23253000      0.00568385      0.02003150      0.00088547       1
H               8.13550000     11.06080000      3.33130000     -0.01397280      0.00774981      0.00113524       1
O               9.89132000      8.72926000     21.62380000     -0.01384600     -0.00445415     -0.00438344       8
H              10.78560000      9.18470000     23.11130000      0.00045497      0.00989951      0.00939641       1
H               8.54321000     10.06360000     21.38340000      0.02961600     -0.02271460      0.00385239       1
O              21.66070000      7.63629000     14.61260000      0.01666120      0.01230560     -0.02887230       8
H              21.47170000      9.54391000     13.76400000      0.00145078     -0.06087930      0.00023589       1
H              22.08230000      6.05129000     13.54670000     -0.01550300      0.05266350      0.02450230       1
O              17.11430000      8.90762000      7.27138000     -0.01218640     -0.03318440     -0.07908060       8
H              15.87640000      9.51598000      8.62791000      0.01353440      0.03100860      0.01325420       1
H              15.82700000      7.93885000      6.07296000      0.00499926      0.00377500      0.03249210       1
O               2.66653000     20.54230000      8.89721000      0.01912740      0.00169164     -0.01588610       8
H               3.17622000     22.24330000      8.43805000      0.00061517     -0.00362126     -0.00095630       1
H               3.87339000     19.28630000      8.27192000     -0.00702787      0.01527490      0.00722579       1
O              22.47460000     15.46430000      2.90993000     -0.00326850      0.00298626      0.00822933       8
H              19.73450000     11.67990000      4.92189000     -0.02764720      0.02535610     -0.02505870       1
H              22.79420000     14.64790000      1.26887000     -0.00360380      0.01219150      0.01537500       1
O              21.82340000      7.38303000      8.29691000     -0.00404154      0.02718690     -0.02399020       8
H              20.32470000      8.30510000      7.71804000      0.00494680     -0.00972874      0.00358951       1
H              21.21670000      6.18039000      9.53486000      0.00529774     -0.04680730     -0.00624344       1
O              14.04870000      4.62702000      0.95081500      0.03540020     -0.04209100      0.04001150       8
H              15.83450000      4.62730000      0.36154800     -0.00536671     -0.00534873      0.00987431       1
H              13.23270000      5.59573000     -0.19500900     -0.04084750      0.03726560     -0.05085930       1
O               5.35383000     10.78520000      2.74254000     -0.02635280      0.00573751      0.01451370       8
H               4.74847000     11.99700000      1.53573000     -0.00830849     -0.00871840      0.00633684       1
H               4.04476000     10.54210000      4.15916000      0.02353520      0.00601363     -0.03402780       1
O               9.92194000      1.17066000     10.77040000     -0.02848840     -0.00769434     -0.02246960       8
H               9.31160000      2.84109000     10.98260000      0.00387337      0.01185310      0.00590824       1
H              11.55000000      0.83701400     11.62920000      0.01162850     -0.00081885      0.00903630       1
O               6.93743000     11.67280000     19.88460000     -0.08775320      0.08006420      0.01148500       8
H               5.94563000     10.71790000     18.71300000      0.00781203     -0.01333440     -0.01827300       1
H               5.36513000     12.86400000     20.40030000      0.06124810     -0.04164690     -0.01343560       1
O              18.11920000      7.92379000     19.24550000      0.01243810      0.02337150      0.01044160       8
H              20.44910000      6.64754000     11.01540000     -0.02319580      0.02260100      0.06001920       1
H              18.86760000      6.31176000     18.81860000     -0.01775100     -0.00134851     -0.00338025       1
O              17.07100000     18.78560000     20.38180000      0.08890820      0.01663770     -0.05392610       8
H              15.52710000     18.33570000     21.12960000     -0.03223460     -0.01338390     -0.01764250       1
H              18.59700000     20.50620000     22.69390000      0.08011840      0.06169070     -0.05315440       1
O               1.45203000     12.68220000     21.59460000      0.01239900     -0.02040400      0.01286090       8
H               0.09315700     11.73620000     20.82190000     -0.00528475      0.00927873      0.00027195       1
H               1.53905000     14.34770000     20.95730000     -0.00734402      0.01256770     -0.02649790       1
O               6.15503000     17.26530000      7.12121000     -0.01293620      0.00130921      0.00392185       8
H               5.37408000     16.59780000      5.62708000      0.00018229      0.00119539     -0.01723720       1
H               7.68948000     18.01600000      6.64139000      0.02577840     -0.00660618     -0.01562950       1
O              21.42450000     13.41570000      7.58577000     -0.02672730      0.04544860      0.00691528       8
H              21.21520000     15.35410000      8.01974000      0.00614071     -0.05412060     -0.00984364       1
H              23.00970000     13.26110000      6.75997000      0.01330010      0.00073628     -0.00709459       1
O              10.69300000     16.47640000     19.98370000      0.00257000     -0.01432730      0.00398770       8
H              10.97700000     17.21840000     18.31240000      0.00306570     -0.00662510     -0.01195750       1
H               9.95767000     14.82480000     19.62480000      0.01013650      0.00312838     -0.00098457       1
O               7.56658000      8.78115000      8.75080000      0.00862949     -0.00239174     -0.04964640       8
H               8.78103000     10.01300000      8.01681000     -0.01151340     -0.00964687      0.01733440       1
H               7.57379000      8.81480000     10.55780000      0.00002147     -0.00123549      0.02239980       1
O               3.28190000      3.04458000      7.99573000     -0.20587100     -0.06413050      0.18848400       8
H               4.01871000      3.18898000      9.70240000     -0.01843880      0.00094503     -0.00872862       1
H               4.50427000      3.37216000      7.15710000      0.22354900      0.07176660     -0.16999400       1
O              15.10190000      0.41971600     17.04530000     -0.03126420      0.01612720     -0.00691531       8
H              13.50190000      1.60622000     17.26860000      0.03703890     -0.02798860     -0.00057105       1
H              16.73070000      1.76256000     17.09930000     -0.01663900     -0.01658600      0.01171440       1
O              10.14960000      0.10011800      2.74307000      0.02488850      0.02636160      0.00474147       8
H               8.95504000     -0.56183600      1.43523000     -0.00004383     -0.01209980     -0.00171061       1
H              11.48400000      1.25489000      2.12432000     -0.01203520     -0.00042233     -0.00405871       1
O               7.56104000      4.75385000      5.52546000      0.01717150      0.00309330      0.04374530       8
H               9.04372000      3.73840000      5.85170000     -0.00075604      0.01148330      0.00105583       1
H               7.78802000      6.23084000      6.70422000     -0.00322720     -0.01199330     -0.00048429       1
O              18.94240000      4.00464000      0.70146900      0.00762748      0.03082490      0.03469420       8
H              19.74230000      4.58969000      2.28715000     -0.00747429     -0.00072705     -0.02534920       1
H              19.53010000      2.33729000      0.42860200      0.00288079     -0.01787380     -0.00193190       1
O               1.93734000      5.86270000     21.70220000     -0.01522550      0.01390380      0.00336019       8
H               0.63535300      6.78196000     22.69500000      0.01408770     -0.01486370     -0.00435547       1
H               1.77685000      4.09811000     22.09390000     -0.00420537      0.00957765      0.00679428       1
O              17.05220000     20.84930000      7.91901000      0.01986920     -0.00923560      0.00636721       8
H              16.26960000     20.47020000      6.34448000      0.00543076     -0.00191393     -0.00523687       1
H              18.86480000     19.97980000      8.39219000     -0.01405600      0.01103810      0.01250340       1
O               1.42181000     16.09560000     17.50530000      0.02962610      0.02007840     -0.01005060       8
H               0.74310500     14.45960000     17.17450000      0.00443279     -0.00392381     -0.01115850       1
H               2.76131000     16.41370000     16.20130000     -0.02717330     -0.01510640      0.02797250       1
O               0.40181600      1.11094000     18.74700000      0.02052770     -0.02895450      0.02313270       8
H               1.31607000      2.63941000     19.01050000      0.00029254      0.00959434      0.00116443       1
H               3.02407000     -1.20672000     20.92510000     -0.01075850      0.02486690     -0.06052720       1
O              11.48660000      3.80549000     17.60410000     -0.01384820      0.01060300     -0.03379700       8
H               9.77292000      3.51852000     18.18280000      0.00362747      0.00721041     -0.00040907       1
H              11.23500000      4.73932000     15.91900000      0.00864000     -0.00094910      0.03200820       1
O              13.01120000      6.50604000      5.43190000     -0.00416304      0.02860470      0.04179100       8
H              13.40320000      5.78835000      3.85756000      0.00555782     -0.01315080     -0.04267160       1
H              11.79310000      7.87785000      5.14585000      0.00779667     -0.00581737     -0.00354473       1
O              13.69180000     15.97810000      6.34270000      0.05629890      0.01840570     -0.01070950       8
H              17.35220000     17.11570000      6.48863000     -0.05598120     -0.01227940      0.00486124       1
H              13.16290000     17.60770000      5.67584000      0.00319765     -0.01276210      0.00719982       1
O              21.98960000      8.04370000      3.58089000     -0.07248680      0.01024970     -0.01663620       8
H              18.35780000      9.55987000      5.05802000     -0.00958394     -0.01120820      0.03709090       1
H              23.24910000      8.60889000      4.67737000      0.02505500      0.00331385      0.00814707       1
O               4.86957000     20.90920000     17.84890000     -0.02252860      0.07318320     -0.03680950       8
H               5.05319000     22.86560000     16.53070000     -0.00868216     -0.08628740      0.06991020       1
H               6.35682000     20.91670000     18.85080000      0.02636140     -0.00248825      0.00912092       1
O              18.60650000      3.19994000     17.44190000      0.02018480     -0.00272288     -0.06001670       8
H              19.85980000      2.59282000     14.84820000      0.00166227      0.02732280      0.01433840       1
H              19.97920000      2.09584000     17.74550000      0.01971020     -0.01417780      0.02701800       1
O              20.41670000     21.82910000     22.42470000     -0.10225800     -0.08299280      0.11290300       8
H              21.20790000     22.54290000     21.01360000      0.02291900      0.01260020     -0.06962760       1
H              21.12580000     20.98870000     24.82840000      0.02753380      0.00177629      0.02646260       1
O               7.06199000      9.04646000     13.81420000      0.04992390      0.00160390     -0.02062450       8
H               6.35896000      8.21012000     15.23330000     -0.00380336     -0.00485070      0.00602590       1
H               9.13489000      8.54975000     13.86540000     -0.03197730     -0.00055076     -0.00826178       1
O              13.70080000     21.79490000     12.52910000      0.00559796     -0.00734738     -0.00426105       8
H              14.59140000     21.15500000     11.04610000      0.00706019      0.00336454      0.02073760       1
H              14.65430000     22.06970000     14.21150000     -0.00300603     -0.00134046     -0.00616599       1
O              17.99150000     12.02240000      3.16583000     -0.01873390      0.02888020      0.04276650       8
H              19.20980000     12.97150000      2.23500000      0.01775620      0.00609744     -0.03488760       1
H              16.36660000     13.39200000      3.21824000      0.03322870     -0.04445780      0.00386986       1
O               3.75676000      7.96003000     17.04680000     -0.07773960      0.01906140      0.02693570       8
H               3.32705000      8.09617000     18.93010000     -0.00111632     -0.00850705     -0.04456360       1
H               1.95476000      8.13087000     16.06050000      0.04147670     -0.00758996      0.02798930       1
O               3.04856000      9.35724000      6.62721000      0.03177210     -0.00552372      0.03168500       8
H               4.78565000      8.71017000      7.10206000     -0.02658580      0.01821350      0.00456592       1
H               1.83974000      8.67258000      7.89283000      0.01935940      0.00798588     -0.01501490       1
O               7.03955000      5.00158000      1.04889000      0.01608470      0.05260160      0.03522760       8
H               6.78523000      6.56384000      0.02474700      0.01204410     -0.03054210      0.01708860       1
H               7.73842000      5.80808000      2.81445000     -0.03291780     -0.03908180     -0.06978730       1
O              11.55690000      7.52180000     13.62170000     -0.00112448     -0.01898960     -0.00508418       8
H              13.14520000      6.70996000     13.04230000     -0.02048890      0.01909050      0.00944509       1
H              12.37110000      9.95476000     14.62760000      0.00605261      0.01263680      0.02885960       1
O              20.95280000     19.20070000     10.22920000      0.01636010      0.01241720     -0.04098900       8
H              20.44070000     18.69610000     12.38510000     -0.00418336     -0.00764116      0.02680650       1
H              22.71950000     19.98690000     10.32610000     -0.04497170     -0.02284020     -0.01151790       1
O              22.11210000     20.03690000      3.84767000     -0.00210685      0.01588270      0.03942530       8
H              22.32950000     17.41800000      3.13959000     -0.01519900     -0.02549970     -0.01212930       1
H              22.10890000     20.32680000      5.78895000     -0.00998668     -0.00037267     -0.05791410       1
O              21.30450000      2.91411000     13.13260000     -0.00134233     -0.02430600      0.01276740       8
H              23.11650000      2.29099000     13.37780000     -0.01169710     -0.00093213     -0.00061448       1
H              20.56760000      2.41868000     11.50430000     -0.00031152     -0.00051223      0.00339226       1
O              20.13900000     18.22220000     14.46550000      0.01869750     -0.00508319      0.02472960       8
H              17.37450000     19.72160000     18.63870000     -0.04245470     -0.00833894      0.03982070       1
H              21.81180000     17.95590000     15.29420000     -0.03588130      0.00669635     -0.01599060       1
O              12.96800000     11.66380000     15.52590000      0.00587347     -0.00009023     -0.00128415       8
H              13.67920000     11.44850000     17.72380000     -0.01016740     -0.02509660     -0.03196600       1
H               8.18364000     20.67710000      7.36637000      0.05789940     -0.01161760     -0.02905690       1
O              10.97840000     20.32510000      6.97706000     -0.11598700      0.01861040     -0.00945506       8
H              10.27380000     22.26320000      4.65825000      0.00198108     -0.02203470     -0.01727880       1
H              10.07120000     21.04700000      8.41680000      0.04539630      0.02501950      0.04540940       1
O               3.75584000      2.27607000     13.46870000      0.00515383     -0.04707590     -0.01003290       8
H               4.42817000      0.35051500     13.11620000     -0.00641562      0.04441940      0.01685660       1
H               4.20193000      2.97942000     15.11920000      0.00427473     -0.00495939     -0.01282900       1
O               4.66840000      0.10936000      3.37741000     -0.00134099      0.00341073      0.00537395       8
H               3.01950000      0.32955800      4.09038000     -0.00864928     -0.00328738     -0.00250922       1
H               5.61990000      1.41572000      4.16771000      0.00720462      0.01396530     -0.00776186       1
O               6.41018000     20.31150000     12.80470000     -0.16643500     -0.00392996      0.05631420       8
H               6.15381000     18.54070000     12.73510000      0.01641090     -0.02789230     -0.00727406       1
H               7.78296000     21.00520000     12.34890000      0.14984300      0.05726330     -0.04569800       1
