192
TotEnergy=-1103.43379000 cutoff=-1.00000000 nneightol=1.20000000 pbc="T T T" Lattice="23.99741000       0.00000000       0.00000000      -0.00000100      23.99741000       0.00000000      -0.00000100      -0.00000100      23.99741000" Properties=species:S:1:pos:R:3:force:R:3:Z:I:1
O              22.61050000     -4.20787000    -28.48640000      0.01204940      0.05701060      0.07644700       8
H              21.32640000     -3.93907000    -29.61800000     -0.04183660      0.00251815     -0.04700580       1
H              23.70340000     -5.45409000    -28.90360000      0.03581690     -0.06180060     -0.02793090       1
O              46.55400000     43.86880000      0.60297400     -0.01485810      0.06970190      0.16821900       8
H              46.73510000     45.77720000      0.73372600      0.00033502     -0.03720420      0.02368830       1
H              46.75520000     43.81250000     -0.98488100      0.01832610     -0.02730750     -0.18544800       1
O              11.76060000      5.70762000     13.21860000     -0.01750580     -0.02426360     -0.03432210       8
H              12.86040000      5.18492000     14.54870000     -0.00125685     -0.00785596      0.00741625       1
H              11.17100000      4.10955000     12.19400000      0.01974460      0.03009670      0.03321970       1
O              -4.94780000    -10.57380000     -1.86004000      0.03712110      0.02189410     -0.06304030       8
H              -3.55687000    -11.14740000     -3.49632000     -0.06990450      0.03911970      0.07148900       1
H              -5.49011000     -8.63904000     -1.83986000      0.03178840     -0.05920670     -0.01037890       1
O               6.28539000     31.10530000     18.88380000     -0.01710510      0.00324778     -0.00642574       8
H               8.04579000     31.38720000     19.38760000     -0.00742071      0.00990124     -0.01188890       1
H               5.95497000     31.55890000     17.07630000      0.02633530     -0.01282540      0.01251320       1
O              -5.18060000      9.73583000      5.78372000      0.01914530      0.00766227      0.01254640       8
H              -4.65912000      8.37911000      6.90030000     -0.01145450      0.00221666     -0.00189320       1
H              -6.37273000      9.09797000      4.54779000     -0.00893409     -0.00740614     -0.00319313       1
O              43.81250000     24.47940000     12.97880000      0.05119310      0.01597080     -0.02566620       8
H              45.83400000     24.50970000     12.79210000     -0.06097010     -0.00390723      0.00304660       1
H              43.11190000     24.16940000     11.25220000      0.01408110     -0.00252877      0.02548660       1
O              -1.08745000    -28.82620000      7.81415000      0.00766983     -0.01624060     -0.05448760       8
H              -0.84939100    -29.59980000      6.02833000      0.01052140      0.00681037      0.05020180       1
H              -2.38155000    -27.61300000      7.43597000     -0.00782815      0.00824980      0.01260950       1
O              30.53760000    -32.37760000     17.96110000      0.07283300      0.02153120      0.02938060       8
H              29.06580000    -32.71040000     17.11880000     -0.05197500     -0.01171620     -0.01142270       1
H              30.70230000    -33.09750000     19.68570000     -0.01549210     -0.00003714     -0.01459330       1
O               9.80213000    -25.41110000    -24.27160000      0.03832200      0.00333917     -0.07863720       8
H              11.20890000    -26.00120000    -25.56400000     -0.02939400      0.02554070      0.03576540       1
H               9.87838000    -26.80520000    -23.20930000     -0.00225725     -0.03013610      0.04175760       1
O              -9.57887000      2.64462000      8.10535000      0.05769470      0.01741000     -0.04589890       8
H             -10.23730000      2.85518000      6.41346000      0.00573945      0.00457039     -0.00454291       1
H             -10.92950000      2.18294000      9.03439000     -0.05801040     -0.02051310      0.04746150       1
O             -11.18980000     27.94260000     50.92790000     -0.07587570     -0.04108210     -0.06631570       8
H             -13.23950000     27.86640000     50.97790000      0.05441790      0.01621620      0.02189070       1
H             -11.21350000     26.92360000     49.22590000      0.02373070      0.02639650      0.04747400       1
O              16.09620000    -30.21380000    -12.98270000      0.01696010     -0.03693510     -0.12483900       8
H              16.36670000    -32.04790000    -13.86630000     -0.01588040      0.05508050      0.01320870       1
H              15.94220000    -30.48120000    -11.35210000     -0.01498450     -0.01721540      0.10835300       1
O              27.40950000     14.81000000     36.07290000      0.03031110     -0.12800400      0.00466617       8
H              25.92020000     15.54030000     35.71140000     -0.06872320      0.04566680     -0.01480000       1
H              26.79640000     12.81560000     35.72410000      0.03511970      0.08068780      0.01493480       1
O               0.21105400      0.84916800      3.38792000     -0.10392700      0.01676060      0.04919590       8
H              -0.50060200      1.55518000      5.23975000      0.04093010     -0.02663880     -0.05561640       1
H               1.90316000      0.95418100      3.09807000      0.05804680      0.00624679      0.00343062       1
O             -29.51120000     21.51850000     32.88550000      0.02768330      0.09598720     -0.07350530       8
H             -30.87430000     21.59640000     31.69930000      0.00203730      0.01469070     -0.00909500       1
H             -30.08230000     20.22000000     33.74580000     -0.03194650     -0.10113100      0.07724870       1
O             -33.91090000     12.15400000     23.30530000      0.03958160      0.00080509      0.00144244       8
H             -34.79930000     11.24650000     22.03370000     -0.01381040     -0.00045106     -0.01350650       1
H             -32.08630000     12.25030000     22.70890000     -0.02457700     -0.00048922      0.00729504       1
O             -18.06750000     63.26230000    -20.15310000     -0.01213660      0.02940150     -0.19326500       8
H             -18.06230000     62.32080000    -18.84620000      0.00448124     -0.08701320      0.14540100       1
H             -18.13470000     61.76980000    -21.57320000      0.01051690      0.06799880      0.04655740       1
O              67.32680000     20.44380000     39.69990000     -0.03641330     -0.04549270      0.00284918       8
H              67.27080000     22.12510000     38.97060000     -0.00794896      0.00201373     -0.00996513       1
H              65.65160000     19.49520000     39.48710000      0.03716610      0.03690730      0.01233150       1
O              55.68470000    -19.93420000      4.02002000      0.01224330      0.00788555     -0.01043020       8
H              55.61260000    -20.65670000      5.77970000     -0.01350100     -0.00297191     -0.03955710       1
H              54.91210000    -20.75810000      2.48942000     -0.00141617     -0.01207850      0.04463920       1
O              30.66620000     18.39160000    -13.69700000      0.00027642      0.00049351     -0.00125085       8
H              32.31670000     18.37420000    -14.67970000     -0.03382640     -0.01478180      0.03697980       1
H              29.98240000     16.86240000    -12.77900000      0.02600060      0.01800380     -0.03009800       1
O             -17.22670000      7.90538000     61.81370000      0.01538200      0.00920394      0.00893476       8
H             -16.44790000      9.65251000     62.32190000     -0.01207030     -0.03318360     -0.01485910       1
H             -15.77780000      6.72086000     61.64930000     -0.01158680      0.02342470      0.00378597       1
O               4.96742000      0.87381500      1.01067000     -0.05830800      0.05911390      0.05152490       8
H               4.07204000      1.71647000     -0.30446300     -0.00926515      0.01401510     -0.01375480       1
H               6.03072000     -0.14557900      0.22707800      0.07123680     -0.06522140     -0.04331800       1
O              43.77810000      4.85909000     24.11760000      0.01873580      0.01317170      0.11560700       8
H              42.85210000      6.15745000     25.52830000      0.03126350     -0.04819390     -0.06562070       1
H              45.20070000      3.97337000     25.31470000     -0.05200690      0.03121830     -0.04826740       1
O              -0.28027200     58.97040000     28.88660000     -0.04608390     -0.00968568     -0.01138570       8
H              -2.22420000     58.70970000     28.77790000      0.03631430      0.00180796      0.00242476       1
H              -0.10069100     60.77350000     28.78180000      0.00127496      0.01185620      0.00264776       1
O              10.03640000     37.76520000     10.57380000     -0.14988000      0.03303100     -0.00858706       8
H               8.75960000     37.09130000      9.11186000      0.03593140      0.00870198      0.04518950       1
H              11.55170000     37.20850000     10.30240000      0.12471000     -0.04614160     -0.03411260       1
O             -16.47560000     20.73080000     19.04350000      0.00169416      0.04791950      0.05294930       8
H             -16.61210000     18.94480000     18.71390000     -0.00433117     -0.01594810      0.01587420       1
H             -16.05380000     21.39480000     20.88610000     -0.00617799     -0.03653340     -0.05257630       1
O              30.64700000     33.22940000     51.21320000      0.00586531     -0.05795610     -0.01072420       8
H              30.98920000     31.31570000     51.09390000      0.00337203      0.04525370      0.01869990       1
H              29.06970000     33.23670000     50.31440000     -0.00314691      0.01131120     -0.00542557       1
O              10.87370000     33.50590000     19.45190000      0.01315590     -0.01169720      0.00995112       8
H              10.50060000     34.01520000     17.75850000     -0.00373824      0.01585640     -0.01049680       1
H              12.41190000     32.46690000     19.20590000     -0.00666173     -0.00377659      0.00511577       1
O               2.63185000    -24.96070000     18.30100000      0.01107960     -0.02191600      0.04554520       8
H               1.33042000    -25.89400000     19.32380000      0.00632106      0.01244850     -0.02495740       1
H               4.23194000    -25.76100000     18.99500000     -0.01861390      0.01251450     -0.02529160       1
O               0.71747600     16.25000000      3.82179000     -0.05267680      0.01300260     -0.01659300       8
H               2.44988000     16.43050000      3.56905000      0.04462200     -0.00190840      0.00207473       1
H               0.00003300     17.24060000      2.40179000      0.00377141     -0.01119510      0.01537860       1
O               1.13990000      0.58348900     13.23280000     -0.03186840      0.03038530      0.01478550       8
H               2.04787000     -0.33613600     12.05260000      0.02493250     -0.02689600     -0.05139060       1
H               1.55781000     -0.28952300     14.71390000      0.00383488     -0.00667293      0.03935030       1
O             -33.50610000     54.03500000    -29.20750000      0.03028820     -0.01476210      0.01602180       8
H             -31.96470000     54.16600000    -30.22160000     -0.01083010     -0.00100603      0.00054937       1
H             -32.87290000     52.89600000    -27.76330000     -0.01929850      0.01406240     -0.02210580       1
O               6.32925000     49.95120000    -15.26480000      0.03897200      0.00137716     -0.01396690       8
H               5.42508000     51.36310000    -14.72660000     -0.02705800      0.02003640      0.00965466       1
H               5.28246000     48.63170000    -15.85950000     -0.02751190     -0.01695830     -0.00049094       1
O             -34.11700000     39.59060000      2.98503000      0.04573320     -0.04176330     -0.00268916       8
H             -34.19160000     38.20300000      1.58887000     -0.01766890      0.04409440      0.02421020       1
H             -35.07250000     41.09340000      3.10309000     -0.03166900      0.00413933     -0.01991140       1
O              21.52340000     35.54160000     11.38450000      0.01610990      0.04107200     -0.01175140       8
H              21.37490000     37.39890000     11.38520000     -0.01931290     -0.01001280      0.00890323       1
H              23.21550000     35.62460000     10.60130000     -0.01283970     -0.02711430      0.00848044       1
O             -17.41970000    -12.32090000      7.67654000     -0.04651390      0.04483320      0.08692540       8
H             -17.31600000    -13.15490000      6.17198000     -0.00169546     -0.04338080     -0.05641770       1
H             -19.20110000    -12.50480000      8.51165000      0.05070780     -0.00660342     -0.03447250       1
O             -44.88440000      3.71623000     20.73110000     -0.06441670     -0.08324940      0.00159849       8
H             -45.24890000      1.91009000     19.73090000      0.02603350      0.06206430      0.01930530       1
H             -43.54650000      4.75194000     20.22820000      0.03386160      0.01328070     -0.02579850       1
O             -22.20530000    -13.93780000     33.16600000     -0.03070950     -0.07419070     -0.00033350       8
H             -22.15420000    -15.74370000     33.96130000      0.00622563      0.04865170     -0.00955505       1
H             -23.59690000    -14.33590000     31.83510000      0.04234840      0.03001740      0.01588640       1
O              15.51750000     14.16540000     31.75570000     -0.03558880      0.04592960     -0.02768400       8
H              16.47790000     12.78850000     31.14990000      0.00966080     -0.01308530     -0.01496800       1
H              14.63030000     15.12550000     30.18770000      0.03357790     -0.04367990      0.03805360       1
O             -20.81170000     -1.96633000     33.24060000      0.01123160     -0.06381730      0.01113860       8
H             -19.53850000     -3.51789000     33.58430000     -0.02350590      0.04134830     -0.00717983       1
H             -22.39560000     -2.95089000     32.87920000      0.01791770      0.01844240     -0.00577667       1
O              42.89560000      5.34192000     33.45790000     -0.01787980     -0.00347618      0.02460090       8
H              41.26790000      4.42105000     33.14310000      0.01763430      0.01361200      0.00510055       1
H              42.89200000      5.86179000     35.27260000     -0.00103169     -0.00844342     -0.03244010       1
O              -8.36103000    -34.77230000     -7.67629000      0.06690360      0.08316350      0.14403500       8
H              -6.63139000    -35.21610000     -7.08659000     -0.03204430     -0.00398424     -0.02444500       1
H              -9.03071000    -35.45460000     -8.99633000     -0.03790800     -0.07831300     -0.11542300       1
O              50.25240000    -18.70200000    -12.41750000      0.01051270      0.01087500     -0.00755244       8
H              51.59860000    -18.11670000    -11.30560000     -0.00274886     -0.00100409     -0.00258236       1
H              49.43550000    -20.11250000    -11.61650000      0.00243852     -0.00439846      0.01534920       1
O              10.31470000      1.22340000     11.28240000     -0.04340190     -0.03681040      0.03687790       8
H               9.90432000      0.06739100     12.82280000      0.03000330      0.01852690     -0.02449070       1
H               8.49997000      1.16466000     10.66680000      0.03034720      0.01427430     -0.01135220       1
O             -33.49290000     -2.65485000     44.86790000      0.04598170     -0.05122650      0.07393350       8
H             -33.81360000     -3.52971000     43.39880000     -0.00787064     -0.01517380     -0.04793620       1
H             -32.27650000     -4.29800000     45.77070000     -0.03841280      0.07606440     -0.01515940       1
O               9.15521000    -12.01670000     -8.78324000      0.08380630     -0.14748800     -0.09442150       8
H               8.70522000    -10.55800000     -8.31758000     -0.06299770      0.16286100      0.06658750       1
H              10.05430000    -11.53340000    -10.47100000     -0.02603940     -0.01576490      0.02317510       1
O              21.73860000     16.86760000     12.38220000      0.02353790     -0.01893720     -0.01743760       8
H              20.79890000     18.12150000     13.19620000     -0.01958830      0.02079880      0.02828360       1
H              22.17390000     17.74530000     10.83900000      0.00216638     -0.00466701     -0.01133970       1
O               9.45183000     21.31630000     -9.36522000      0.03506450      0.00788655     -0.08055080       8
H               8.90771000     21.40050000     -7.75313000     -0.02751820      0.00762940      0.07866380       1
H               8.07290000     20.68030000    -10.32780000     -0.00507630     -0.01184650     -0.00969915       1
O              22.91940000     49.89970000     32.14660000      0.06805500      0.04263260      0.05717290       8
H              24.45610000     50.84510000     33.33670000     -0.07007460     -0.04257340     -0.06413250       1
H              21.42940000     50.81400000     32.69370000     -0.00253589      0.00706339     -0.00180156       1
O              -8.26277000      8.12006000      2.34449000     -0.10307700     -0.00668169     -0.05452500       8
H              -9.57804000      9.44295000      1.42184000      0.06347420     -0.03126050      0.03226810       1
H              -9.57176000      6.55666000      2.07800000      0.04466960      0.03365710      0.02628210       1
O              14.21680000    -29.86910000     16.47460000      0.09918710     -0.06862220     -0.00908200       8
H              12.71330000    -29.17530000     16.72520000     -0.09160630      0.02705820      0.00345082       1
H              14.30080000    -31.80130000     16.68180000     -0.00374856      0.03681220     -0.00166831       1
O               1.24150000     15.52570000     41.92580000     -0.00984455     -0.00301108     -0.02688510       8
H               1.42565000     13.78530000     42.56220000     -0.00302435      0.00776839     -0.01225100       1
H               0.60206100     15.48850000     40.15040000      0.01053350     -0.00718176      0.03363950       1
O              41.74610000     42.62550000     -0.05349900     -0.06159970     -0.05248320      0.03459130       8
H              43.31150000     43.31720000      0.41860400      0.03261870      0.01180240      0.00682143       1
H              41.05240000     41.62770000      1.51101000      0.01421570      0.02879200     -0.04756450       1
O              20.77110000     10.82890000    -31.38700000      0.00835277      0.01525540      0.05616700       8
H              19.94760000      9.27736000    -31.02590000     -0.00400758     -0.00686760     -0.01489240       1
H              20.60810000     11.41440000    -33.04090000     -0.00126703     -0.00713675     -0.03791540       1
O             -13.98110000     43.14110000      3.93479000     -0.06632380     -0.01127530      0.04902920       8
H             -15.87790000     42.46460000      4.06798000      0.06855710      0.01193470     -0.01265870       1
H             -13.62010000     43.39550000      5.83263000      0.00157671     -0.00323713     -0.04445630       1
O              11.36540000    -28.22140000     32.84230000     -0.00034705      0.07297750     -0.01207260       8
H              12.73920000    -28.92950000     33.67920000      0.03272960     -0.03748150      0.02118880       1
H              11.88660000    -26.38860000     33.07350000     -0.02652690     -0.03375910     -0.00628551       1
O               2.76657000     35.23810000      0.42005300     -0.01167240      0.00113084      0.04504610       8
H               1.85331000     35.22870000      2.11200000      0.00839176     -0.00135752     -0.03738730       1
H               1.54531000     34.99580000     -0.88300000     -0.00389526     -0.00386378     -0.00711361       1
O              -9.30219000    -13.78970000     12.22390000      0.04871200     -0.06553030     -0.05929750       8
H              -9.74448000    -15.79520000     11.92340000      0.00917724      0.07939100      0.01447180       1
H              -7.65660000    -13.50080000     11.08410000     -0.06296980     -0.01266640      0.04253540       1
O              -4.88720000      5.23016000     15.75650000     -0.03078420     -0.01759430     -0.04609660       8
H              -3.60184000      5.41287000     16.99400000      0.02518600     -0.01549590      0.00896108       1
H              -4.73720000      3.70224000     14.59220000      0.00639098      0.02500860      0.03762860       1
O              26.04600000    -13.52360000     -4.63393000      0.05831840     -0.04412730     -0.01527630       8
H              24.62590000    -14.48240000     -5.22214000     -0.00810975     -0.00225363     -0.00188427       1
H              27.63840000    -14.81660000     -4.95344000     -0.05291720      0.04974880      0.02174180       1
O              22.51640000      5.95298000     43.64570000      0.09350210     -0.00279095     -0.05492140       8
H              21.53560000      5.82126000     45.03350000     -0.04079680     -0.00745676      0.06674840       1
H              24.37220000      5.32874000     44.15270000     -0.05242090      0.00982888     -0.01165550       1
O              15.49870000     26.51830000     46.27210000      0.00473641      0.00246478      0.01055950       8
H              17.10390000     26.67680000     47.31690000     -0.02825990     -0.01389290     -0.02870840       1
H              14.96520000     24.89670000     45.50380000      0.02663680      0.00895898      0.01759220       1
O             -16.79740000     13.31860000     22.58340000      0.01682140     -0.04716960     -0.03757750       8
H             -15.56660000     12.11690000     21.63990000     -0.03283430      0.03131020      0.03273580       1
H             -18.37500000     12.29760000     22.73210000      0.01954670      0.01282970      0.00196983       1
