192
TotEnergy=-1103.46340000 cutoff=-1.00000000 nneightol=1.20000000 pbc="T T T" Lattice="24.52080000       0.00000000       0.00000000      -0.00000100      24.52080000       0.00000000      -0.00000100      -0.00000100      24.52080000" Properties=species:S:1:pos:R:3:force:R:3:Z:I:1
O              21.24330000      2.62555000    -32.69950000      0.02955070      0.01782750      0.01803810       8
H              22.09250000      3.26923000    -31.05670000     -0.01855070     -0.02681630     -0.02794280       1
H              20.02720000      1.28344000    -32.50120000     -0.00246161     -0.00068775      0.01581770       1
O              44.41390000     41.28900000     11.31710000      0.12068700     -0.09344370     -0.01969980       8
H              45.26730000     41.00070000      9.60543000     -0.02226490      0.00828191      0.03465960       1
H              43.21000000     42.39400000     11.12140000     -0.08867280      0.08844330     -0.01785680       1
O              16.02100000      1.85494000     21.85190000     -0.01240290     -0.02037180     -0.00495646       8
H              14.44570000      1.04157000     22.47000000      0.02732550      0.00805544     -0.01368280       1
H              16.81600000      0.67571200     20.58490000     -0.01856400      0.01033640      0.00996975       1
O              -3.85946000     -5.81841000     -6.72803000      0.02664540      0.01027530     -0.01163830       8
H              -2.57477000     -5.71485000     -8.12812000     -0.02470630     -0.00823426      0.01669320       1
H              -2.78353000     -5.60041000     -5.26657000     -0.00376565      0.00032561      0.00723659       1
O               5.67452000     32.46930000     24.05360000      0.01382630      0.00039380      0.00997716       8
H               6.67103000     33.74220000     24.98580000     -0.00537486     -0.01258110     -0.00821121       1
H               6.57396000     30.84570000     24.09030000     -0.00406273      0.00889140      0.00426531       1
O              -1.99882000     15.89540000      6.48190000      0.00390463      0.00840214      0.00129075       8
H              -2.52781000     14.21210000      5.96683000     -0.00791698     -0.00804993     -0.00205951       1
H              -0.18948500     15.96070000      6.29730000      0.00113221      0.00399193      0.00314027       1
O              38.61910000     22.65570000     14.43740000     -0.06196900      0.01552980      0.03443050       8
H              39.96680000     22.39030000     13.40630000      0.05032840     -0.01290380     -0.04798120       1
H              37.43740000     21.27500000     14.10550000      0.00866481     -0.00420182      0.00775634       1
O               0.66024500    -24.61720000     13.50160000      0.06262220     -0.06529630     -0.02487850       8
H               0.63685700    -26.45140000     13.95380000     -0.00061623      0.03852480     -0.00637556       1
H              -0.71701900    -23.85110000     14.17720000     -0.06067910      0.02804270      0.03163410       1
O              33.47100000    -36.51910000     18.60960000      0.03823220      0.02052480      0.02301700       8
H              34.08540000    -38.27380000     18.35170000      0.00451602      0.03161110      0.00234327       1
H              35.02580000    -35.26070000     19.15160000     -0.04146910     -0.04298110     -0.01973850       1
O               6.47546000    -29.05670000    -21.35400000      0.05903540      0.03832530      0.01265100       8
H               8.40072000    -29.28520000    -21.05220000     -0.05948190      0.00432591     -0.01261950       1
H               6.31933000    -27.14080000    -21.20090000      0.00279126     -0.03871330     -0.00359809       1
O             -13.84340000      2.25107000      5.79772000     -0.08197980      0.10276400      0.10970200       8
H             -15.76020000      2.09047000      6.03888000      0.04551340     -0.00128714     -0.01877040       1
H             -13.24820000      1.14768000      4.76420000      0.03990440     -0.10542300     -0.09635820       1
O             -12.77320000     34.11880000     49.46510000     -0.01353110      0.00328001     -0.08058600       8
H             -12.67570000     33.48200000     47.60380000      0.01463010      0.00708684      0.05740510       1
H             -14.00150000     35.46800000     49.07640000      0.00987433     -0.01125410      0.02247340       1
O              13.25300000    -29.08580000    -17.24630000     -0.08558160      0.10836900      0.01102200       8
H              14.19170000    -30.45770000    -17.37740000      0.04637880     -0.10021200     -0.00871443       1
H              11.70760000    -29.27810000    -16.24050000      0.02011930     -0.01356820     -0.01039790       1
O              28.83430000     19.37050000     36.96700000     -0.07482030      0.00160683     -0.06787430       8
H              27.32950000     18.31520000     37.36070000      0.01374490      0.01424110     -0.00103124       1
H              29.94800000     18.90580000     38.14790000      0.06091870     -0.01840760      0.06742520       1
O              -0.73707300      3.66833000     -3.92683000      0.01989920     -0.09087780     -0.08597510       8
H               0.06887400      5.12409000     -3.91667000      0.04358720      0.10025100      0.01659630       1
H              -1.98720000      3.27726000     -2.87518000     -0.06290520     -0.00390351      0.07549680       1
O             -28.81840000     19.62750000     27.90480000      0.02033250     -0.00315431      0.02710470       8
H             -27.97820000     18.27350000     29.03780000     -0.00910999      0.03615790     -0.02451070       1
H             -28.30260000     21.39150000     28.49580000     -0.00253726     -0.03484580     -0.00318955       1
O             -31.64610000     14.72790000     19.29110000      0.04755550      0.06380200     -0.01628320       8
H             -31.76210000     14.59940000     17.45020000     -0.01246950     -0.01296420      0.00461403       1
H             -30.34020000     16.25950000     19.25120000     -0.03816270     -0.04891470      0.00647455       1
O             -16.87850000     61.18360000    -22.48080000      0.04753130     -0.02077000      0.05604360       8
H             -16.58880000     61.13540000    -20.52230000     -0.01098740     -0.00815596     -0.04114360       1
H             -18.22130000     62.25520000    -22.66490000     -0.04542270      0.03264960     -0.01121730       1
O              66.71560000     23.36780000     42.39720000      0.05230060     -0.07897650      0.03604850       8
H              65.14610000     23.21230000     41.50740000     -0.01344710     -0.00972043     -0.00708923       1
H              67.44930000     21.28910000     42.81380000     -0.02897840      0.08993770     -0.02844050       1
O              54.50980000    -23.42330000      4.83498000     -0.03750710      0.03320970     -0.02201680       8
H              53.59450000    -24.68560000      5.96725000     -0.00574533      0.04081630     -0.02158500       1
H              53.35820000    -21.97130000      3.89181000      0.04209860     -0.07427810      0.04896240       1
O              32.80140000     17.03940000    -16.04190000     -0.02831800      0.01037620      0.02854250       8
H              33.25080000     15.28360000    -16.08380000     -0.00238126     -0.00530233     -0.00076346       1
H              31.52690000     17.18670000    -14.62670000      0.03439270     -0.00103635     -0.02625020       1
O             -10.87670000      6.02436000     61.65710000      0.13006900      0.10281100      0.04372620       8
H             -11.62420000      4.58330000     61.41060000     -0.07063180     -0.11663700     -0.02233160       1
H              -8.99632000      5.46058000     62.02470000     -0.05273760      0.02566660     -0.01425840       1
O               7.88641000      2.96074000     -0.71924600      0.01648560      0.04189600      0.02137460       8
H               9.62134000      2.62463000     -0.39665500      0.01309770      0.01017220      0.01212470       1
H               7.54278000      1.45750000     -1.49309000     -0.03118230     -0.05092700     -0.03251180       1
O              43.33220000     11.16700000     22.74490000      0.03600550      0.03346960     -0.03567020       8
H              42.79550000     12.17940000     21.22090000     -0.00365564     -0.01216090      0.02102380       1
H              45.16290000     11.79300000     22.62220000     -0.03157080     -0.01940800      0.01039820       1
O              -4.46473000     60.75720000     29.92440000     -0.05105820      0.08992570      0.14308800       8
H              -5.66548000     60.36580000     31.64830000      0.04823440      0.01353480     -0.07660500       1
H              -4.35655000     59.37630000     29.03000000      0.00525737     -0.10714100     -0.06125170       1
O               8.43445000     36.09260000      7.19924000      0.01683390      0.00531762     -0.00220499       8
H               7.48129000     35.14760000      8.59537000      0.04092960      0.00892248     -0.03249550       1
H              10.36140000     35.94290000      6.91864000     -0.05795790     -0.01755220      0.03591620       1
O             -13.05210000     21.78460000     21.56760000     -0.01921760     -0.05767730     -0.04362670       8
H             -14.80860000     22.06860000     20.72130000      0.04333880     -0.00975595      0.02587820       1
H             -12.52160000     19.92630000     21.03810000     -0.02143710      0.06525030      0.00954295       1
O              25.35330000     33.76740000     50.34070000      0.03629530      0.02481150     -0.02079870       8
H              24.80450000     35.28170000     49.38480000      0.00993337     -0.02431770      0.01084010       1
H              27.22540000     33.48230000     49.92740000     -0.04368620      0.00180161      0.00343714       1
O              13.11180000     33.77060000     17.20340000      0.01223030     -0.02105030     -0.00132575       8
H              13.01270000     32.45770000     15.84460000      0.00598891      0.01623100      0.02346080       1
H              14.29190000     33.14240000     18.61230000     -0.02279860      0.00022793     -0.02840470       1
O              -4.29360000    -21.83540000     24.56790000      0.08219070      0.03586800      0.02986820       8
H              -5.74081000    -22.18660000     23.80070000     -0.09962460     -0.00194655     -0.05458990       1
H              -4.12011000    -23.38570000     25.35830000      0.02258360     -0.03199770      0.02995410       1
O               4.90899000     14.04210000     -2.44259000      0.07858550      0.01792550      0.03003050       8
H               6.58744000     13.37330000     -3.05159000     -0.03339530      0.00488659     -0.00259332       1
H               3.62193000     13.38240000     -3.37810000     -0.04168080     -0.02596930     -0.03173680       1
O               4.20541000      1.75695000     17.71000000     -0.02802720      0.02272580      0.00120836       8
H               3.21433000      1.58348000     16.18060000      0.00602702     -0.01111960     -0.00426964       1
H               3.10552000      3.01944000     18.57310000      0.02463560     -0.01721920     -0.00082438       1
O             -33.39030000     56.34390000    -27.92000000      0.01296860     -0.04575900     -0.00112220       8
H             -32.87830000     54.44140000    -27.85700000     -0.01503440      0.05234460      0.00007367       1
H             -31.94260000     57.41150000    -27.53240000      0.00056571     -0.00841868      0.00701437       1
O               1.97701000     47.27930000    -17.00340000     -0.00174574     -0.02066320     -0.02608690       8
H               1.61326000     47.47570000    -15.25740000      0.00201535     -0.00315587      0.01540340       1
H               2.09367000     45.41190000    -17.49010000      0.00115742      0.02577240      0.01582500       1
O             -32.96850000     37.52620000      2.18827000     -0.08302390     -0.04958690     -0.02868740       8
H             -31.89430000     37.57210000      0.70814400      0.00276312     -0.01068970     -0.00181008       1
H             -34.42630000     36.06650000      1.65163000      0.06223530      0.05503860      0.01893950       1
O              21.31560000     34.89670000     11.87470000     -0.04648630      0.02284350     -0.01510760       8
H              19.48040000     35.84020000     11.16100000      0.07946350     -0.03646740      0.00999405       1
H              22.65120000     34.22800000     10.70540000     -0.03754210      0.01526570      0.00285624       1
O             -13.02300000    -22.75290000     11.42570000     -0.01082510      0.00205896     -0.00656769       8
H             -12.49750000    -23.13090000      9.74863000     -0.00255610      0.00119892     -0.01409250       1
H             -12.10330000    -23.88220000     12.46440000      0.01160030     -0.01808200      0.01701810       1
O             -45.86210000      7.09766000     19.67070000     -0.00581247     -0.01195200      0.01914010       8
H             -45.46130000      7.94269000     18.13220000      0.01209510      0.00930638      0.00212139       1
H             -44.68820000      7.41811000     21.10320000     -0.01148560      0.00737261     -0.02550370       1
O             -19.27790000    -16.49820000     35.71420000     -0.06047620     -0.01053010     -0.02270060       8
H             -18.38900000    -17.85300000     36.55080000      0.00691374     -0.00768881      0.00204675       1
H             -21.02400000    -17.32430000     35.22860000      0.05403350      0.03149850      0.00662826       1
O              16.52890000     16.26890000     30.45240000      0.04067260      0.07670250      0.01993390       8
H              17.70200000     17.92650000     30.20740000     -0.04130250     -0.06512660     -0.00085709       1
H              16.89600000     15.13820000     29.09700000      0.00096907     -0.00845889     -0.01477690       1
O             -18.18100000     -2.15967000     45.00190000     -0.07368460     -0.01637610     -0.02000170       8
H             -19.23650000     -3.66818000     45.92030000      0.02499550      0.04702170     -0.02739800       1
H             -19.51780000     -1.18626000     43.76660000      0.04972220     -0.02407980      0.04510970       1
O              43.81260000      2.51813000     33.10830000      0.00624444     -0.00705202      0.07926520       8
H              44.06190000      3.83693000     34.51850000     -0.00816622     -0.03014180     -0.02164320       1
H              43.90510000      3.42991000     31.66170000     -0.00280913      0.04010630     -0.05565770       1
O              -7.90333000    -36.42830000    -14.85420000     -0.04977790     -0.07036320      0.02103570       8
H              -7.79196000    -35.06130000    -15.99300000     -0.00612183      0.02687390     -0.01829670       1
H              -9.64773000    -37.58300000    -15.19510000      0.06433870      0.03140130     -0.00265942       1
O              56.48270000    -20.34220000    -11.12210000     -0.02408200      0.01246590      0.07569410       8
H              57.24640000    -21.84260000    -11.65320000      0.01894680     -0.02227510     -0.01720490       1
H              56.17150000    -20.65760000     -9.23081000      0.00374097      0.00977574     -0.05102520       1
O              16.85740000     -2.73595000      9.98419000      0.00536760     -0.03345110      0.03340240       8
H              17.56470000     -1.32327000      9.27714000      0.02887580      0.04689540     -0.01662180       1
H              15.44850000     -3.07514000      8.92926000     -0.02164000     -0.00889845     -0.01151200       1
O             -36.64240000     -8.42480000     44.83380000      0.00300385      0.00241929     -0.00925822       8
H             -34.79960000     -8.57204000     44.35000000     -0.02580260     -0.00329530      0.02302330       1
H             -37.07020000     -8.17310000     46.63710000      0.02174920     -0.00514039     -0.00980821       1
O               4.48708000    -13.54040000     -9.10873000     -0.01654020      0.02964210      0.08721110       8
H               5.65451000    -12.20120000     -8.77897000      0.00545146     -0.00088999      0.00718966       1
H               4.73827000    -13.99160000    -10.71330000      0.01436600     -0.03561210     -0.09146710       1
O              24.43390000     17.10870000     14.26940000     -0.03810040      0.04281480     -0.05096330       8
H              22.91760000     16.96650000     13.06190000      0.02620760      0.00680646      0.02046620       1
H              24.35750000     15.56460000     15.07870000      0.00413900     -0.04615320      0.02913720       1
O              11.60520000     18.00350000    -10.33010000      0.00880588      0.00830229     -0.01904410       8
H              12.56620000     16.52520000     -9.94166000      0.01440130     -0.00881639     -0.00177866       1
H              10.27650000     17.88620000     -9.16362000     -0.02680020      0.00423480      0.01814900       1
O              22.31200000     48.74540000     29.35610000      0.04596560     -0.02006210      0.01972790       8
H              21.48220000     49.82110000     30.50020000     -0.02138890      0.01504050      0.01278790       1
H              23.82740000     48.30110000     30.53570000     -0.02526970      0.00171047     -0.03563620       1
O               0.29290400      6.82438000      9.04920000     -0.01405620     -0.05056190      0.00128578       8
H              -0.23167900      5.15121000     10.01620000      0.01309790      0.05784040     -0.04859100       1
H               0.05437300      6.67142000      7.11665000     -0.00580261     -0.00818746      0.05274610       1
O              11.87140000    -26.22380000     26.45930000      0.00280636     -0.11551700      0.03485820       8
H              11.74130000    -27.69300000     27.93640000      0.01423260      0.06877220     -0.04795900       1
H              12.18650000    -27.58090000     25.06800000     -0.01368780      0.05302030      0.02358220       1
O              -2.02049000     18.56530000     47.53990000     -0.07282000     -0.02584480     -0.03158890       8
H              -0.47027600     19.02270000     47.96450000      0.11009300      0.02389460      0.01107720       1
H              -2.83619000     19.26170000     48.97240000     -0.03317770      0.00093741      0.02246980       1
O              36.16760000     41.31050000      0.95918100      0.02709050     -0.09444950      0.03405470       8
H              37.65160000     39.87500000      1.51724000     -0.03947040      0.06258340     -0.02038360       1
H              34.73890000     40.13850000      1.41367000      0.01739700      0.02765780     -0.01019990       1
O              31.55760000     18.26910000    -32.02680000     -0.01623240     -0.05794800      0.00618232       8
H              30.86400000     16.76740000    -31.08130000      0.01882950      0.03232090     -0.02111540       1
H              31.50470000     19.60070000    -30.83460000     -0.00100364      0.02275480      0.01437710       1
O             -20.69610000     43.35800000     -1.35131000      0.00160600     -0.04376790     -0.03640610       8
H             -19.85670000     41.61030000     -1.54126000     -0.02533440      0.03023430     -0.00136124       1
H             -19.79450000     44.12940000     -0.05803600      0.01875950      0.01392610      0.03938190       1
O               3.16583000    -31.10230000     31.21330000      0.01804340     -0.00084983     -0.01428150       8
H               3.97343000    -31.07840000     32.83070000     -0.00544728     -0.00159118      0.01009270       1
H               4.69692000    -30.96020000     30.12720000     -0.02099370      0.00331652      0.00399968       1
O              -2.32014000     31.16080000      4.13803000      0.03920820      0.08650420      0.06881710       8
H              -1.06601000     32.11250000      3.13424000     -0.00482280      0.00650230      0.00913329       1
H              -2.61956000     29.97630000      3.03032000     -0.03537490     -0.09734410     -0.07682980       1
O             -11.46940000    -15.38730000      8.62585000      0.01153990      0.11139800     -0.06108330       8
H             -11.69920000    -16.30010000      9.97389000     -0.01373300     -0.06998470      0.11993100       1
H             -11.62040000    -16.55170000      7.35539000      0.01006190     -0.03406770     -0.05858330       1
O              -5.12204000      5.48744000     12.96010000      0.00476852      0.06240590     -0.02071540       8
H              -4.53211000      7.35252000     12.85500000     -0.01588820     -0.03822960     -0.00661535       1
H              -4.16159000      4.89273000     14.37810000      0.00067687     -0.02065110      0.01219820       1
O              23.37030000    -10.91610000     -2.84356000      0.02371820      0.02774500      0.24401600       8
H              23.24590000    -11.17190000     -4.38506000     -0.01801310     -0.01657950     -0.21366000       1
H              23.15730000     -9.22591000     -2.04745000     -0.00380687     -0.01584030     -0.03021610       1
O              23.97220000     12.21480000     41.03060000     -0.03430770      0.03742560      0.04593610       8
H              23.17820000     11.85390000     39.53580000     -0.05152940     -0.01133560     -0.04826630       1
H              25.47060000     11.51660000     40.60380000      0.08138510     -0.02730780     -0.00062940       1
O              14.24400000     30.68540000     53.35640000     -0.02691450     -0.03182510      0.00930857       8
H              13.14090000     29.10160000     53.89830000      0.02358930      0.05720020     -0.03208520       1
H              13.72110000     31.57390000     51.79240000     -0.00377785     -0.02698090      0.02524940       1
O              -9.70752000     13.86470000     14.96440000      0.00704973     -0.00786209     -0.03486580       8
H              -9.22578000     13.37800000     13.25200000      0.01251300      0.02631360     -0.00434631       1
H             -10.30420000     12.19660000     15.27940000     -0.01696040     -0.01852650      0.03677410       1
