192
TotEnergy=-1103.53869000 cutoff=-1.00000000 nneightol=1.20000000 pbc="T T T" Lattice="23.99741000       0.00000000       0.00000000      -0.00000100      23.99741000       0.00000000      -0.00000100      -0.00000100      23.99741000" Properties=species:S:1:pos:R:3:force:R:3:Z:I:1
O              22.62450000     -4.22551000    -28.51130000     -0.00489294     -0.01494090      0.01293860       8
H              20.78420000     -3.81002000    -28.74700000      0.03807040     -0.01556600     -0.01992350       1
H              23.20340000     -5.95618000    -29.15820000     -0.01920130      0.03186150      0.01358430       1
O              46.34180000     43.84180000      0.66030400      0.01266790      0.04980110      0.01155730       8
H              46.85610000     45.66250000      1.22815000     -0.00992200     -0.05045730     -0.01655100       1
H              46.28540000     43.76870000     -1.20453000      0.01732010      0.00623209      0.00502327       1
O              11.79710000      5.82849000     13.26520000     -0.00515521     -0.00411204     -0.02388230       8
H              12.92060000      5.59670000     14.70430000     -0.01508940     -0.01995550     -0.00950195       1
H              11.13570000      4.27329000     12.28380000      0.02703500      0.01829140      0.04158520       1
O              -5.11375000    -10.52900000     -1.87608000     -0.02210980      0.04240230      0.05248540       8
H              -4.74461000    -10.42470000     -3.60994000      0.00588814      0.00874408     -0.02091490       1
H              -5.49373000     -8.74169000     -1.10695000      0.01796730     -0.04281190     -0.03454900       1
O               6.14021000     31.13230000     18.84780000      0.05523040      0.01015500      0.04553160       8
H               8.11655000     31.46180000     19.38410000     -0.05846270     -0.00015573     -0.02062030       1
H               6.07270000     31.29500000     17.05520000      0.01099220     -0.00239353     -0.02683060       1
O              -5.25360000      9.88854000      5.73945000      0.00544482      0.06289800     -0.04370360       8
H              -5.09137000      8.74840000      7.01996000     -0.00389988     -0.04566450      0.03992030       1
H              -6.55402000      9.50568000      4.47943000      0.00024818     -0.01997620      0.00824370       1
O              43.94780000     24.63600000     12.97220000      0.02951890      0.00601748     -0.02125980       8
H              45.89050000     24.87530000     13.16770000     -0.03291180     -0.01594660     -0.00647588       1
H              43.73160000     24.10430000     11.14080000      0.00101525      0.00371140      0.03397910       1
O              -1.11044000    -28.96290000      7.61129000     -0.01015070      0.00241051     -0.03447020       8
H              -0.61310600    -30.22750000      6.23744000     -0.00086384      0.02526850      0.02070510       1
H              -2.29533000    -27.75990000      6.77757000      0.01632310     -0.02158480      0.02123900       1
O              30.56470000    -32.29690000     17.99180000      0.01225760      0.02794750     -0.05909750       8
H              28.89740000    -32.61400000     17.27330000      0.00553080     -0.00064043      0.02448080       1
H              31.05930000    -33.03580000     19.51390000     -0.01368240     -0.02697420      0.03580510       1
O               9.76630000    -25.54850000    -24.50970000      0.00295852     -0.04485040      0.07442920       8
H              11.25390000    -25.24370000    -25.50050000      0.01224580     -0.00767515      0.00377673       1
H              10.24540000    -26.69190000    -22.75630000     -0.01697330      0.04433810     -0.07339610       1
O              -9.47368000      2.66547000      8.06280000     -0.02373670      0.00258854      0.04104320       8
H             -10.21940000      2.77047000      6.45021000     -0.00037363      0.00537460     -0.03051600       1
H             -10.98870000      2.81823000      9.16142000      0.02611060     -0.01053370     -0.01016700       1
O             -11.11940000     27.89840000     50.99620000     -0.00576527     -0.01094730     -0.01359280       8
H             -12.91240000     28.16400000     51.47710000      0.00698699     -0.01346610     -0.01391570       1
H             -10.95330000     26.75600000     49.49890000     -0.00836129      0.02019840      0.02341510       1
O              15.93720000    -30.22450000    -13.01230000      0.00161712     -0.03863020      0.03113490       8
H              16.03030000    -31.86120000    -14.15650000     -0.00043643      0.03208610      0.02025770       1
H              16.06140000    -30.75830000    -11.17340000     -0.00360826      0.01240360     -0.04993440       1
O              27.42650000     14.66600000     36.17320000      0.02672320     -0.05304720     -0.00793129       8
H              25.93080000     15.59560000     35.84200000     -0.01806000     -0.00508839     -0.00599996       1
H              27.34190000     12.80910000     35.58780000     -0.01335710      0.05898370      0.01718360       1
O               0.16209700      0.80524400      3.24982000      0.02067410     -0.00227252     -0.05182550       8
H              -0.22177800      1.29535000      4.88547000     -0.01337560      0.01058020      0.04562280       1
H               1.83598000      1.50020000      2.85048000     -0.01657940     -0.01614620      0.00212623       1
O             -29.47760000     21.62800000     32.83880000      0.06733010      0.01278300      0.01954250       8
H             -30.37740000     22.43890000     31.61390000     -0.04300490      0.01614140     -0.02765090       1
H             -30.23630000     20.38820000     33.86750000     -0.02979040     -0.02200200      0.00369073       1
O             -33.83000000     12.03330000     23.26620000      0.06413060      0.02856010      0.03755180       8
H             -35.03340000     11.64480000     22.07940000     -0.02568350     -0.00826321     -0.04488640       1
H             -32.13310000     12.76700000     22.55860000     -0.03843080     -0.02929270      0.00446716       1
O             -18.16120000     63.31520000    -20.36570000     -0.01783020     -0.01874430      0.05668290       8
H             -18.15230000     62.24140000    -18.72510000      0.01156390      0.02312710     -0.03458710       1
H             -18.54040000     62.01920000    -21.53910000      0.00734849     -0.00855923     -0.01622820       1
O              67.29580000     20.36920000     39.81210000     -0.07047760      0.02864610     -0.03262850       8
H              67.04350000     22.16900000     38.83100000      0.01705820     -0.05625680      0.02583620       1
H              65.49120000     19.57950000     39.77380000      0.04614240      0.02689800      0.00351855       1
O              55.70730000    -20.00430000      3.94248000     -0.00288281     -0.02255750      0.04952980       8
H              55.13400000    -20.91020000      5.62947000      0.01944100      0.02895600     -0.04767150       1
H              54.74790000    -20.80680000      2.60592000     -0.00404002     -0.01004350      0.00054620       1
O              30.81340000     18.54370000    -13.58460000      0.00159853      0.08202940     -0.00911452       8
H              32.43250000     18.70530000    -14.40510000      0.00662922     -0.00928229      0.00242078       1
H              30.32170000     16.94410000    -13.25870000     -0.01372630     -0.07189100      0.01242700       1
O             -17.07800000      7.80283000     61.80100000     -0.17886700      0.12966700      0.06318450       8
H             -16.55680000      9.75424000     62.31460000     -0.01658870     -0.05412100     -0.01777930       1
H             -15.63940000      7.28043000     61.42330000      0.18669400     -0.07749020     -0.04758820       1
O               4.86385000      1.00776000      0.99455900     -0.12282700      0.12562400      0.04285650       8
H               4.34104000      1.90415000     -0.51770500     -0.00267256     -0.00082351     -0.00786224       1
H               5.98212000     -0.05852100      0.60193200      0.12749600     -0.12255300     -0.04741580       1
O              43.75530000      4.85090000     24.18690000     -0.00214414      0.00279004     -0.00200815       8
H              42.82670000      6.19300000     24.99400000     -0.01099320      0.00695765     -0.00183154       1
H              45.10380000      4.54311000     25.32750000      0.01075350     -0.01118440      0.00737115       1
O              -0.35372200     59.08310000     28.95530000     -0.01306570      0.04915910     -0.02475960       8
H              -2.22092000     58.52080000     28.69890000      0.03767490      0.02604420      0.01113950       1
H              -0.04300500     61.07840000     28.53980000     -0.02674380     -0.06321670      0.01497810       1
O               9.90013000     37.79320000     10.65270000      0.01995030     -0.03809320     -0.02034660       8
H               9.18368000     36.44890000      9.39804000      0.01256310      0.03834690      0.03209010       1
H              11.64840000     37.22740000     11.04510000     -0.02162840      0.00758172     -0.02029640       1
O             -16.71860000     20.73920000     19.19450000      0.04091560     -0.02657350      0.06451840       8
H             -16.48200000     18.89020000     18.90460000     -0.01950050      0.01875440     -0.00695301       1
H             -15.82800000     20.81760000     21.02390000     -0.02620190      0.01480210     -0.05338670       1
O              30.61100000     32.99280000     51.13710000      0.07705010     -0.06783510     -0.00108319       8
H              31.60830000     31.16180000     50.68970000     -0.05791740      0.07697570      0.02625730       1
H              29.03870000     33.09420000     50.33800000     -0.02339370     -0.00573979     -0.02054770       1
O              10.96990000     33.38210000     19.42790000     -0.00494195     -0.01385710     -0.00939902       8
H              10.47030000     34.20740000     17.79190000      0.02091700     -0.01442660      0.02223120       1
H              12.36530000     32.02370000     19.27230000     -0.02016930      0.02934880     -0.01025590       1
O               2.69487000    -24.89220000     18.24800000     -0.03930200     -0.05821580      0.04270110       8
H               1.28927000    -26.33680000     19.15600000      0.04903560      0.05820610     -0.04177120       1
H               4.40827000    -25.51810000     18.75000000     -0.02124040     -0.00038519     -0.00898703       1
O               0.69691600     16.33360000      3.91282000      0.03426580     -0.00572025     -0.04865890       8
H               2.65057000     16.00380000      3.74161000     -0.03837710      0.01596650      0.00519747       1
H               0.16108000     17.20970000      2.25402000      0.00940572     -0.01555780      0.04079630       1
O               1.06865000      0.51786900     13.33830000     -0.00462542      0.00525221     -0.00426367       8
H               1.73524000     -0.35130800     11.71060000     -0.00036505      0.00256191      0.05266720       1
H               1.55136000     -0.01508800     15.09710000      0.00748558     -0.00990896     -0.03227940       1
O             -33.58930000     53.86990000    -29.21040000      0.00757475      0.00115825     -0.00846224       8
H             -31.90290000     53.98790000    -29.88670000      0.00063000      0.00672116     -0.01200970       1
H             -33.22640000     52.77740000    -27.78380000     -0.00822015     -0.01144110      0.01054120       1
O               6.44839000     49.95310000    -15.31350000     -0.02052040      0.08002870      0.00256112       8
H               5.06013000     51.24130000    -14.96600000      0.03172360     -0.02750690     -0.00024842       1
H               5.53905000     48.50780000    -15.65290000     -0.03165050     -0.04901240     -0.00633099       1
O             -34.00380000     39.47950000      3.07027000      0.00806325      0.04203720      0.03321830       8
H             -34.07870000     38.36840000      1.70627000     -0.01003760     -0.02896700     -0.03338660       1
H             -35.34780000     40.72340000      2.94409000      0.00123312     -0.01081520      0.00152255       1
O              21.37770000     35.50820000     11.42390000     -0.00867357     -0.02348660      0.00896567       8
H              21.27590000     37.24200000     11.04600000     -0.00144206      0.02800270     -0.00054307       1
H              22.97370000     34.93790000     10.76130000      0.00407124     -0.00109811     -0.00178869       1
O             -17.43470000    -12.40000000      7.53135000     -0.07764280      0.16794100      0.15222200       8
H             -17.39240000    -13.70400000      6.62194000      0.00152929     -0.15644300     -0.11520500       1
H             -19.29650000    -12.42430000      8.52088000      0.07588230     -0.01490720     -0.04155540       1
O             -44.94120000      3.62596000     20.71930000      0.03587620      0.03407900     -0.02712260       8
H             -45.28730000      2.31533000     19.45520000      0.00233978     -0.00602766      0.00903239       1
H             -43.52200000      4.80112000     19.86880000     -0.03583700     -0.02790850      0.02572380       1
O             -22.17000000    -14.06950000     33.28070000      0.01870670     -0.03016620      0.05235650       8
H             -22.35800000    -15.90560000     33.70290000      0.00977519      0.02558780     -0.00073100       1
H             -22.98380000    -13.75850000     31.74950000     -0.02448630      0.00755458     -0.04996230       1
O              15.50860000     14.18610000     31.83870000      0.02870140     -0.03675380     -0.04444250       8
H              16.71870000     12.81330000     31.28870000     -0.01487220      0.01834600      0.02448600       1
H              15.12590000     14.70550000     30.06540000     -0.01251960      0.00883677      0.01792090       1
O             -21.02250000     -2.00336000     33.38590000      0.00284439      0.01919060     -0.00223920       8
H             -19.87080000     -3.39938000     33.41770000      0.01295530     -0.01126680      0.01025380       1
H             -22.58570000     -2.70510000     32.83210000     -0.01653910     -0.01006820     -0.01352730       1
O              42.84460000      5.31956000     33.40270000     -0.03907340     -0.00401557     -0.00392454       8
H              41.00380000      4.86460000     33.26010000      0.02496960     -0.00029888     -0.02762780       1
H              42.82370000      4.98142000     35.15600000      0.02181120      0.00455237      0.02698590       1
O              -8.30432000    -34.84290000     -7.59828000     -0.03427830     -0.04051100     -0.07176060       8
H              -6.97457000    -35.98490000     -7.19466000      0.01909130      0.00409817      0.01120000       1
H              -8.90672000    -35.95560000     -9.30729000      0.00934774      0.04085640      0.05728270       1
O              50.21580000    -18.77490000    -12.43160000     -0.01772900     -0.02053470      0.03867070       8
H              51.57760000    -18.51280000    -11.23530000      0.00715964      0.01156920     -0.01118010       1
H              49.10380000    -19.82380000    -11.24170000      0.01987490      0.01244250     -0.03641950       1
O              10.28400000      1.14055000     11.41500000     -0.00767334      0.01159850     -0.00402048       8
H               9.97351000     -0.03595100     12.77010000      0.01011520     -0.00870754      0.01302740       1
H               8.55785000      1.41590000     10.79380000      0.01193620      0.00229826     -0.00618377       1
O             -33.45070000     -2.61398000     44.85530000     -0.03875780      0.05482910     -0.05448590       8
H             -33.35620000     -3.04755000     43.04730000      0.00106578     -0.01040050      0.02664080       1
H             -32.47630000     -3.63725000     45.84420000      0.03675070     -0.04250710      0.02749700       1
O               9.18081000    -12.01430000     -8.79779000     -0.01057610     -0.02106460      0.03740270       8
H               8.45105000    -10.47710000     -8.24758000     -0.03250570      0.01595100      0.04000190       1
H               9.86350000    -11.13200000    -10.13360000      0.03053300      0.00198558     -0.06681380       1
O              21.73750000     16.92490000     12.13100000      0.02346830     -0.01865390     -0.02014500       8
H              20.79480000     17.94870000     13.22530000     -0.01460600      0.02057080      0.01999980       1
H              21.93890000     17.86830000     10.54980000     -0.00155659     -0.00194351      0.00314888       1
O               9.41358000     21.26980000     -9.35192000      0.06483170      0.00272642     -0.09259520       8
H               8.72689000     21.29630000     -7.83276000     -0.04738010      0.00530942      0.10620500       1
H               8.32222000     20.34550000    -10.41690000     -0.01505530     -0.01464810     -0.01601240       1
O              22.99400000     49.94470000     32.22690000     -0.04593320      0.05005440      0.01333080       8
H              24.55710000     50.59360000     32.88900000     -0.00613008      0.00196644      0.00164686       1
H              21.58260000     51.36560000     32.68560000      0.04484320     -0.04834760     -0.01849170       1
O              -8.18828000      7.90209000      2.35836000     -0.09434190     -0.00804802     -0.02727530       8
H              -9.38160000      9.16357000      1.51296000      0.04378400     -0.00636645      0.00709623       1
H              -9.73433000      6.54873000      2.43765000      0.05873410      0.01614100      0.01262830       1
O              14.25460000    -29.73120000     16.51190000     -0.05736560     -0.01366020     -0.04380140       8
H              12.31930000    -29.31040000     15.59710000      0.08747710     -0.02380700      0.03689750       1
H              14.87290000    -31.59850000     16.36280000     -0.02972950      0.03682470      0.00654725       1
O               1.25968000     15.53730000     41.99590000     -0.03979500     -0.03311890     -0.06967180       8
H               1.25861000     13.65180000     42.29940000      0.00287641      0.02653580      0.00697392       1
H               0.37881900     15.54050000     40.19530000      0.03253090      0.00305579      0.05718450       1
O              41.67430000     42.58040000     -0.00653800      0.02771400      0.04608950     -0.13920900       8
H              43.27250000     43.31850000      0.30032400      0.02404890      0.00746725      0.01970000       1
H              41.01400000     41.87130000      1.28991000     -0.06117070     -0.06192340      0.12916100       1
O              20.80430000     10.87220000    -31.48000000      0.01257710      0.02990690      0.00014653       8
H              20.12340000      9.24956000    -31.42940000     -0.00663676     -0.03060200      0.00089295       1
H              21.23680000     11.14280000    -33.26380000     -0.00558590      0.00003948      0.00245108       1
O             -14.18250000     43.13000000      3.96992000      0.02238840      0.00411031     -0.10946900       8
H             -15.78410000     42.56990000      4.24261000     -0.06799890     -0.03478020     -0.02082590       1
H             -13.91820000     43.44050000      5.57352000      0.05263070      0.03012990      0.11869400       1
O              11.43300000    -28.35030000     32.85740000     -0.03312060      0.06833070     -0.03578010       8
H              12.50790000    -29.37250000     33.79270000      0.03942600     -0.01342690      0.02417340       1
H              11.87430000    -26.49040000     32.89440000     -0.00200489     -0.04738600      0.01224930       1
O               2.78040000     35.40930000      0.37617300      0.01395270     -0.01227220     -0.03929580       8
H               1.57739000     35.72120000      1.61098000     -0.02903830      0.00121886      0.02792520       1
H               1.86245000     34.74510000     -1.11101000      0.01164090      0.00913316      0.00771581       1
O              -9.32904000    -13.83290000     12.13020000     -0.07357230      0.00471766      0.02724690       8
H             -10.14650000    -15.52610000     12.26690000      0.02250120      0.01440290     -0.00620700       1
H              -7.67222000    -13.57240000     11.72220000      0.05249650     -0.01632620     -0.02048680       1
O              -4.88063000      5.31595000     15.53870000      0.00415405     -0.05204110     -0.00967023       8
H              -3.61216000      5.21128000     16.86110000      0.00566440      0.00830619      0.00561094       1
H              -4.76471000      3.47017000     14.91150000     -0.01024910      0.04239740      0.00577538       1
O              26.03530000    -13.81110000     -4.71950000      0.09066250      0.02082420      0.03898040       8
H              24.65390000    -14.34060000     -5.64698000     -0.02359750     -0.03156760     -0.02454300       1
H              27.91480000    -14.69030000     -4.73080000     -0.07126980      0.01290700     -0.01256730       1
O              22.57270000      5.91619000     43.51460000      0.07652350     -0.01024440     -0.01235630       8
H              21.89150000      5.53827000     45.07940000     -0.03479310     -0.00480824      0.03665370       1
H              24.47440000      5.41791000     44.06160000     -0.04921710      0.00962549     -0.02632290       1
O              15.53250000     26.43740000     46.22420000      0.01634500      0.01458980      0.01974400       8
H              17.11690000     26.94860000     47.12030000     -0.01631740     -0.00861352     -0.01446150       1
H              15.84490000     24.93900000     45.24430000     -0.00139269     -0.00848829      0.00455206       1
O             -16.65330000     13.25360000     22.58360000      0.08380260      0.05194150     -0.04415920       8
H             -15.44420000     11.97610000     22.20490000     -0.00440705     -0.01093750      0.00538884       1
H             -18.09390000     12.66660000     23.22620000     -0.07491410     -0.04452680      0.02960050       1
