192
TotEnergy=-1103.45622000 cutoff=-1.00000000 nneightol=1.20000000 pbc="T T T" Lattice="24.77208000       0.00000000       0.00000000      -0.00000100      24.77208000       0.00000000      -0.00000100      -0.00000100      24.77208000" Properties=species:S:1:pos:R:3:force:R:3:Z:I:1
O              22.95870000     -3.44803000    -31.64320000     -0.04406880     -0.01658550     -0.06079190       8
H              21.56870000     -2.55585000    -32.80680000      0.05133470     -0.03655840      0.04146930       1
H              23.22970000     -5.25722000    -32.43430000     -0.00522408      0.04399200      0.02098750       1
O              48.50840000     45.76780000     -1.51985000     -0.00860304     -0.02000380      0.00618655       8
H              49.41740000     47.26450000     -1.29161000      0.01574840      0.02520970      0.00962177       1
H              47.69640000     45.98310000     -3.11337000     -0.00527629     -0.00583622     -0.01586450       1
O              13.52790000      6.91026000     14.29720000      0.01527880      0.07522330      0.07494490       8
H              14.28460000      7.39837000     16.09040000     -0.02504230     -0.02075100     -0.07005020       1
H              13.88590000      5.22571000     14.11450000      0.01500010     -0.05541790     -0.00709549       1
O              -7.28819000     -9.97871000     -3.35562000     -0.14778200      0.02883960      0.03785110       8
H              -5.74679000    -10.21960000     -3.76769000      0.15437900     -0.03170760     -0.04783850       1
H              -7.19795000     -9.67445000     -1.58844000     -0.00716475      0.00323762      0.00954237       1
O               6.01313000     33.59260000     19.40130000     -0.03214730     -0.01943220     -0.04517030       8
H               7.18454000     34.04640000     20.56220000      0.04677800      0.02196870      0.05555920       1
H               6.94622000     33.86160000     17.85840000     -0.00843426     -0.00312922     -0.01204900       1
O              -5.09055000      9.10487000      8.00030000     -0.00707401     -0.03178740      0.00828676       8
H              -5.48253000      7.64099000      9.27506000      0.00202512      0.02470210     -0.02363460       1
H              -5.40373000      8.29527000      6.35338000     -0.00270847      0.00734107      0.01250150       1
O              46.21030000     26.65960000     12.76460000     -0.05939530     -0.03573380     -0.01415470       8
H              47.87680000     26.16910000     12.56600000      0.05091480     -0.00009860      0.00222503       1
H              45.39370000     25.07680000     11.85760000      0.01760820      0.04368910      0.02486780       1
O              -3.61077000    -32.83150000      6.77809000      0.00020675     -0.00530780     -0.00625085       8
H              -2.71618000    -32.07320000      5.22284000     -0.02216840     -0.02247690      0.01883910       1
H              -4.83118000    -34.21710000      6.53201000      0.01445240      0.02462340     -0.01265830       1
O              32.01920000    -34.09410000     18.27500000      0.09503910      0.08243560      0.11202200       8
H              31.19170000    -34.42520000     16.93440000     -0.09306800     -0.05907590     -0.13089400       1
H              32.21130000    -35.24550000     19.59310000     -0.00436318     -0.02670830      0.01335300       1
O               8.81901000    -27.77580000    -25.37070000      0.04916550     -0.02910520     -0.00565108       8
H              10.65920000    -28.46450000    -25.66170000     -0.04532170      0.02605520      0.00475946       1
H               8.43273000    -28.53900000    -23.73570000      0.00073686      0.00217834     -0.00541330       1
O              -9.14264000      2.37865000      8.61045000      0.05731070     -0.02861720      0.14256700       8
H              -9.80151000      2.43025000      7.14984000     -0.05777840      0.02336860     -0.17784600       1
H             -10.51140000      1.52779000      9.41108000     -0.01486410     -0.01460930      0.02909690       1
O             -10.71990000     28.09880000     53.11930000      0.00730617     -0.01571120     -0.03980450       8
H             -12.35390000     28.72480000     52.46770000      0.01906490     -0.00814308      0.01334440       1
H              -9.84414000     27.16620000     51.60630000     -0.03241550      0.01000580      0.03025290       1
O              14.96940000    -31.52230000    -14.54720000     -0.00768325      0.00624599      0.06163140       8
H              16.06370000    -32.83130000    -14.98910000      0.01634570     -0.02341630     -0.02684090       1
H              14.98500000    -31.85880000    -12.66650000     -0.01024360      0.02065920     -0.03805120       1
O              29.02050000     14.83560000     38.60290000     -0.02800780     -0.00949406     -0.00665365       8
H              27.67580000     16.14790000     39.14760000      0.02113740     -0.05897940     -0.01308720       1
H              28.38980000     12.92650000     37.98020000      0.00747631      0.07624970      0.01243490       1
O               1.03534000      1.03623000      1.10145000     -0.02833760     -0.01010570      0.01751400       8
H               1.14579000      0.94579100      2.93670000      0.00685863      0.00006982     -0.01398260       1
H               2.49616000      1.73045000      0.37452200      0.02052650      0.00788736     -0.00120372       1
O             -29.88340000     23.62570000     34.08100000      0.03875850      0.09250340     -0.01992970       8
H             -30.98170000     25.14710000     33.85260000      0.00053639     -0.03476010     -0.00248863       1
H             -30.73390000     22.19730000     34.38980000     -0.05330140     -0.06484030      0.01386340       1
O             -33.67020000     10.45270000     25.17940000     -0.00163992     -0.00323933     -0.02096590       8
H             -34.33240000     10.66550000     23.41680000      0.00594792      0.00596912      0.03847700       1
H             -34.51840000     11.39160000     26.49610000     -0.00556204      0.00113332     -0.02280020       1
O             -20.69960000     66.24230000    -20.30590000      0.00636990      0.01912270      0.04076420       8
H             -20.14470000     66.11360000    -18.42940000     -0.01236920      0.00773346     -0.03958260       1
H             -20.75680000     64.58130000    -20.95650000     -0.00505855     -0.02378070     -0.00654249       1
O              67.12490000     21.42000000     39.54810000     -0.01290230      0.04566050      0.01289640       8
H              66.40710000     23.22430000     39.68670000      0.01701080     -0.03649300     -0.01132600       1
H              66.44660000     20.74240000     41.10990000     -0.00125067     -0.00514870     -0.00425106       1
O              58.00750000    -19.98600000      3.85995000     -0.04032430     -0.00749055     -0.01970490       8
H              56.96930000    -20.11070000      5.40333000      0.01654440     -0.01159670     -0.01069160       1
H              57.18210000    -21.25910000      2.49119000      0.03621600      0.02769020      0.04278100       1
O              30.08610000     18.12760000    -15.69950000     -0.00932504     -0.03133220      0.05107160       8
H              31.86490000     18.72530000    -15.44770000     -0.02326540     -0.02416410      0.00205905       1
H              29.49450000     16.85150000    -14.22210000      0.03208030      0.04437580     -0.04324070       1
O             -16.20660000      8.24996000     63.97430000     -0.06749240      0.01972190     -0.01965090       8
H             -15.67400000      9.63231000     62.86310000      0.00398983      0.00165945      0.00052563       1
H             -14.70760000      7.62345000     64.52290000      0.06310710     -0.02800060      0.01751480       1
O               7.61249000      1.65696000      0.35199500     -0.05122950      0.07266450     -0.01129670       8
H               6.58890000      2.76665000     -0.81698000      0.02389720     -0.03126810      0.01271650       1
H               8.24543000      0.26704300     -0.53789600      0.01426080     -0.03924700     -0.01341160       1
O              45.70740000      3.41801000     24.92360000      0.01819720     -0.03034220     -0.01552320       8
H              45.29810000      4.80029000     25.92350000     -0.02542910      0.04676150      0.01884310       1
H              46.98430000      2.70604000     25.97780000      0.01593830     -0.01709770     -0.00276711       1
O              -0.65449300     61.29670000     32.15790000     -0.03684470      0.02398140      0.00140328       8
H              -2.10078000     60.15720000     32.29200000      0.00627368     -0.02005430      0.00303939       1
H              -1.79471000     62.80970000     32.26730000      0.03856070     -0.00656978     -0.00428789       1
O              10.81380000     36.81940000     11.94520000      0.06494260      0.00097607     -0.05771670       8
H               9.63503000     37.27510000     10.58450000      0.00484715     -0.00049973      0.00242793       1
H              12.70330000     36.56730000     10.81630000     -0.07316840      0.01247820      0.05858720       1
O             -18.19700000     20.69630000     19.08990000     -0.01182830     -0.01744740     -0.07425910       8
H             -18.65620000     18.99380000     18.30720000      0.01550760      0.03450860      0.03781930       1
H             -18.11700000     20.70540000     20.83240000      0.00628677     -0.01546960      0.04750630       1
O              32.59010000     34.57170000     52.29570000     -0.00770635     -0.06982170      0.00816331       8
H              32.75550000     32.40200000     52.85720000      0.00171768      0.06070050     -0.02419250       1
H              30.76970000     34.73750000     51.96630000      0.01500140      0.00404413      0.01206580       1
O              13.46780000     34.78000000     19.84660000     -0.00559401     -0.02548880      0.00902749       8
H              14.39110000     35.72510000     18.62680000      0.01303230      0.00143976     -0.00293157       1
H              13.92400000     32.97800000     19.69750000     -0.00157235      0.02255410      0.00218020       1
O               2.80830000    -25.40460000     18.24300000      0.06073240     -0.01638910      0.00703685       8
H               1.63627000    -26.72460000     18.48340000     -0.03092430     -0.00978312     -0.00358234       1
H               4.41853000    -26.44140000     18.63180000     -0.03050580      0.01954290     -0.01226510       1
O              -1.02584000     18.95620000      3.12529000      0.03910000     -0.00637231      0.02104520       8
H               0.74577300     18.42400000      3.69996000     -0.03203330      0.00267932     -0.02392420       1
H              -1.08571000     19.31340000      1.29600000      0.00498558     -0.00080246      0.00824453       1
O               2.35496000      1.23508000     13.29480000      0.00098769     -0.00202767      0.00253110       8
H               3.12718000      0.08714400     12.13780000     -0.00289809     -0.00689845     -0.01836170       1
H               2.85970000      0.49322100     14.88280000     -0.00980607      0.00238175      0.01540740       1
O             -34.26790000     53.89460000    -30.25860000     -0.07186670      0.00421043     -0.01432930       8
H             -32.72330000     54.25910000    -30.90730000      0.07253130      0.01777890     -0.03083210       1
H             -33.90220000     53.49940000    -28.60680000      0.00377310     -0.01883920      0.05032650       1
O               7.04229000     52.20700000    -16.19360000     -0.01204080     -0.02758830     -0.00042157       8
H               6.12495000     53.35570000    -15.10080000     -0.00341103      0.01207660      0.00958592       1
H               5.94705000     50.66460000    -16.11930000      0.01583050      0.01740850     -0.00897056       1
O             -37.24320000     39.65420000      2.16874000      0.08274800      0.07222000      0.16200400       8
H             -37.89480000     39.07160000      0.81844400     -0.07703800     -0.04782850     -0.13349700       1
H             -38.21860000     40.99900000      3.05565000     -0.01112410     -0.02020210     -0.02579900       1
O              18.29360000     35.08320000     16.52100000      0.01757310     -0.04808750      0.00067986       8
H              17.40780000     35.70610000     15.00450000      0.01560690     -0.01968210      0.00613148       1
H              19.03160000     33.12480000     16.47480000     -0.03161160      0.06186950     -0.01111050       1
O             -17.26600000    -12.57080000      7.59736000      0.01370390      0.01044540      0.00697924       8
H             -16.54320000    -13.39820000      6.10138000     -0.02134510     -0.00475887      0.01085810       1
H             -18.41850000    -13.55660000      8.62049000      0.00268687     -0.00529826     -0.01598970       1
O             -45.34550000      3.62921000     20.56460000     -0.00976938     -0.10320100     -0.01342480       8
H             -44.75700000      2.37903000     19.18760000     -0.03105470      0.03048960      0.04409750       1
H             -44.53290000      5.03703000     20.11090000      0.03977060      0.08509290     -0.02069680       1
O             -21.47890000    -14.00020000     35.76250000      0.04243950     -0.02406350      0.05513730       8
H             -21.64930000    -15.58620000     36.74550000      0.00249251      0.01216780     -0.02292930       1
H             -22.77200000    -13.82360000     34.60250000     -0.04215310      0.00372941     -0.02922040       1
O              15.96830000     13.91100000     31.13330000      0.09996650      0.05190930      0.06724600       8
H              15.58900000     12.28560000     31.28180000      0.00339806     -0.10664300      0.03214140       1
H              14.75170000     14.12330000     30.06130000     -0.10168100      0.05281210     -0.09891260       1
O             -21.05920000     -1.51324000     33.56450000     -0.01252900      0.03639080     -0.00869085       8
H             -20.85920000     -3.21152000     33.25910000      0.02996400     -0.06313730      0.01235770       1
H             -22.47880000     -1.45490000     32.40620000     -0.01573650      0.02903100      0.00759361       1
O              42.74560000      5.55029000     35.89180000     -0.03537800     -0.01579730     -0.01422110       8
H              41.59910000      4.13342000     35.10470000      0.01491350      0.05070850      0.00501345       1
H              44.03050000      4.41299000     36.33180000      0.03701950     -0.00981210      0.01883490       1
O             -10.06230000    -30.79270000     -6.18168000     -0.03326940      0.01550930     -0.03566940       8
H              -8.56848000    -31.59820000     -5.78303000      0.03428590     -0.02911920      0.01954720       1
H             -10.82990000    -31.76080000     -7.63595000      0.00443850      0.01358640      0.02603130       1
O              54.46040000    -19.34200000    -12.59510000      0.07948520      0.07233850     -0.00880309       8
H              56.44270000    -18.69090000    -11.88180000     -0.08189610     -0.02511710     -0.00647288       1
H              53.51580000    -20.77040000    -12.10930000     -0.00208852     -0.02832840      0.02705260       1
O              11.16340000      0.02498700     10.45170000     -0.03240820      0.05495010     -0.04108090       8
H              10.80920000     -0.66289400     12.00160000     -0.00131125     -0.02364780      0.05117280       1
H               9.71682000      1.36896000     10.36060000      0.03350390     -0.03092520     -0.01637170       1
O             -35.38790000     -3.67155000     48.01880000      0.00319146     -0.00834317      0.00930351       8
H             -35.40840000     -4.13074000     46.16570000      0.01126240     -0.01328890      0.03990350       1
H             -34.55830000     -4.83389000     49.31810000     -0.01168440      0.01655170     -0.04730880       1
O              11.63990000     -8.01336000     -9.40038000      0.17652000     -0.02648380     -0.16123100       8
H              10.37970000     -8.07118000     -8.49897000     -0.19443300     -0.00197834      0.15328800       1
H              11.39580000     -9.64043000    -10.32320000      0.01257450      0.01995360     -0.00124930       1
O              22.00620000     18.02330000     12.04600000      0.06323960     -0.02082170      0.08480020       8
H              20.87310000     18.97290000     12.93260000     -0.04159210      0.03516810      0.01844530       1
H              21.64730000     17.84890000     10.43590000     -0.02984380     -0.00955563     -0.11197000       1
O              10.68220000     22.54680000     -9.06309000      0.01631920     -0.02232650     -0.04806930       8
H               9.84715000     22.55670000     -7.54689000     -0.02880430      0.00887642      0.05130000       1
H              10.43850000     20.77330000     -9.50173000      0.01112600      0.01150240     -0.00626923       1
O              23.98100000     48.19680000     31.02500000      0.00013286     -0.02066920     -0.02943610       8
H              22.19580000     48.24450000     31.58660000      0.02367720     -0.00841259     -0.00326973       1
H              24.27150000     46.71710000     29.82470000     -0.02462110      0.02849720      0.02390890       1
O              -6.78488000      6.65656000      3.07181000      0.08622400     -0.20209100      0.14900800       8
H              -7.33658000      7.78624000      2.13981000     -0.09229010      0.14955500     -0.13573700       1
H              -7.83953000      5.01408000      3.20666000      0.00716721      0.06180990     -0.00465065       1
O              14.60540000    -23.56250000     15.08890000     -0.00685281     -0.01352610      0.01336240       8
H              13.27920000    -24.93240000     15.29580000      0.02213810      0.03130260      0.00660256       1
H              14.93950000    -22.67080000     16.71500000     -0.01461110     -0.02132130     -0.01640080       1
O              -0.61192900     16.18880000     40.86580000     -0.04476740     -0.00903154     -0.00876335       8
H              -1.50280000     14.97510000     42.10840000      0.02017330      0.02028900     -0.01910990       1
H              -1.74870000     16.20930000     39.29960000      0.03193030      0.00063192      0.03130080       1
O              41.50770000     42.98160000      2.30597000     -0.05500070      0.01786430     -0.03227150       8
H              42.96920000     42.51240000      3.13545000      0.02203770     -0.01796190      0.02534100       1
H              39.94740000     42.02520000      2.65813000      0.03143770     -0.00133987      0.00131035       1
O              21.99250000     12.84330000    -30.41620000     -0.06176850      0.02955330     -0.03553750       8
H              23.36940000     11.87520000    -30.02290000      0.05010290     -0.03728530      0.01733820       1
H              20.94580000     11.99730000    -31.75930000      0.00973768      0.00412121      0.02455410       1
O             -15.98360000     43.25870000      3.68468000      0.06840870      0.02623370     -0.01191840       8
H             -17.60720000     42.65790000      3.70718000     -0.06033340     -0.02520750      0.00607351       1
H             -15.52840000     43.79940000      5.36881000     -0.00386661      0.00078790      0.00479614       1
O              10.19500000    -29.89460000     33.31460000     -0.00026048     -0.02388910     -0.01049270       8
H              11.94440000    -30.36290000     33.58880000     -0.00044874     -0.00191649      0.00688441       1
H              10.01580000    -28.18150000     33.71870000      0.00671917      0.03379770      0.00523331       1
O               2.65048000     36.40340000      2.95093000     -0.04195590     -0.02776100     -0.01656280       8
H               1.33140000     36.08450000      4.40712000      0.03115710      0.00899172     -0.05022770       1
H               2.06835000     35.79590000      1.16499000      0.00400804      0.01905600      0.06101010       1
O              -8.97321000    -13.50100000     11.86320000      0.02979000     -0.04373620     -0.03205630       8
H              -9.58442000    -15.34680000     12.17770000      0.02248840      0.04062780     -0.00794014       1
H              -7.42297000    -13.58700000     10.63000000     -0.05029180     -0.00733585      0.03514500       1
O              -4.80047000      5.39841000     17.34070000      0.04021500      0.00137876     -0.01065220       8
H              -3.29625000      5.93641000     18.44200000     -0.02801770     -0.02507830     -0.01901340       1
H              -4.09854000      4.18303000     16.03790000     -0.01314930      0.02392900      0.02377610       1
O              26.03780000    -14.86730000     -3.48770000     -0.00590819     -0.02443570      0.00148284       8
H              24.92810000    -16.54430000     -3.52980000      0.04946750      0.04350150     -0.00301371       1
H              27.88290000    -14.93070000     -4.04537000     -0.04896760     -0.01703220      0.00307783       1
O              23.67650000      5.26758000     45.61590000     -0.13451700      0.00499621      0.06561330       8
H              22.86330000      4.22367000     47.24430000      0.01020580      0.04326800     -0.05433410       1
H              25.21460000      4.67127000     45.69620000      0.12250300     -0.04568800     -0.01056050       1
O              16.43890000     25.75250000     49.32330000      0.00996517     -0.01814210      0.00138137       8
H              18.08320000     26.08320000     50.02990000      0.00639195      0.00843149     -0.00903383       1
H              16.50420000     23.91550000     49.03090000     -0.01823350      0.01470750     -0.00154361       1
O             -15.29390000     12.03470000     22.59710000     -0.04853030      0.03942890     -0.01560290       8
H             -13.72950000     11.49840000     22.06050000      0.04069140     -0.02406440     -0.00889076       1
H             -15.87820000     11.39310000     24.14900000      0.00307512     -0.01832180      0.02725070       1
