192
TotEnergy=-1103.07057000 cutoff=-1.00000000 nneightol=1.20000000 pbc="T T T" Lattice="26.28149000       0.00000000       0.00000000      -0.00000100      26.28149000       0.00000000      -0.00000100      -0.00000100      26.28149000" Properties=species:S:1:pos:R:3:force:R:3:Z:I:1
O              12.64920000      0.89270300      9.52934000     -0.01823350      0.01741490     -0.07318380       8
H              13.08070000      2.42762000     10.27070000      0.01093440      0.01182940      0.02647740       1
H              12.38650000     -0.46195100     10.58270000      0.00358345     -0.03472640      0.04118900       1
O               6.73630000     22.74750000     14.04150000     -0.07923310     -0.06722100     -0.01123100       8
H               8.37713000     22.35620000     13.99910000      0.08403960     -0.02421730     -0.00711122       1
H               6.68875000     24.41190000     14.27260000     -0.00324561      0.09543660      0.01619760       1
O              16.34330000     19.18430000     25.97020000     -0.02921920     -0.08213400      0.00398593       8
H              15.43450000     17.74900000     24.88300000      0.03119410      0.05224340      0.02719330       1
H              16.21040000     20.70450000     25.12470000     -0.01583070      0.03712800     -0.02985940       1
O              11.15560000     10.62850000     26.52310000      0.09260930     -0.04147170      0.02634430       8
H              11.49100000     11.26710000     24.95960000      0.00544200      0.02609900     -0.04783700       1
H               9.56114000     10.82970000     26.98450000     -0.09997360      0.01451260      0.02342380       1
O              14.86020000     11.70530000     12.57410000     -0.01258040     -0.04777660      0.03267600       8
H              15.07790000     13.27890000     11.98360000      0.01395070      0.10860500      0.01654100       1
H              14.88110000     11.34660000     10.86900000      0.00071987     -0.06208920     -0.04780320       1
O              18.75010000     24.22020000     10.50220000      0.09949030      0.04866220      0.04738970       8
H              17.87310000     22.84320000     10.76380000     -0.05365190     -0.10206300      0.03324000       1
H              17.93930000     24.92140000      9.22040000     -0.04205640      0.05652320     -0.07693090       1
O              21.14720000     19.06650000     24.48600000     -0.04054420      0.02315630      0.03639700       8
H              19.64400000     19.65200000     25.53550000     -0.00110496     -0.04980090     -0.02966690       1
H              21.88740000     20.52750000     25.17930000      0.05034880      0.02089770     -0.00990109       1
O              21.34530000     18.26570000      6.72749000      0.03871570     -0.08144330      0.03147910       8
H              19.78690000     18.15700000      6.00426000     -0.06535110     -0.01671010     -0.02719090       1
H              21.58950000     19.91130000      6.49427000      0.02850230      0.09608960     -0.00421412       1
O              26.17670000      0.19274100     19.17330000      0.07523580      0.00513381      0.06638920       8
H              25.17870000      0.16136700     20.67790000     -0.02990370      0.00004150     -0.02217270       1
H              25.87700000      0.21727300     17.48640000     -0.04301630     -0.00440622     -0.04818580       1
O              26.52660000     25.39570000      7.24556000      0.02027750      0.04198780     -0.03401410       8
H              24.83130000     24.96360000      7.14862000     -0.06811240      0.02142140     -0.04612330       1
H              26.46220000     24.16870000      8.41718000      0.05159350     -0.06229360      0.07859020       1
O               9.84388000      9.38553000     13.50020000      0.03044680     -0.06586510      0.08163800       8
H              11.38420000      9.91965000     12.92800000      0.04047400      0.02936210     -0.02360770       1
H               8.46179000      9.92476000     12.74040000     -0.06897920      0.03908190     -0.05681090       1
O               5.09460000      5.31212000     23.94380000      0.02011540     -0.00709113      0.01404840       8
H               5.30570000      3.55608000     23.66050000     -0.01765910     -0.02245620     -0.03351730       1
H               6.24515000      5.07941000     25.34000000     -0.00169599      0.03239200      0.01673960       1
O               4.45746000      7.02373000     14.38120000      0.07506650      0.05348730     -0.01067490       8
H               3.40777000      6.56905000     15.73650000     -0.01455110     -0.00863718      0.03128340       1
H               5.87298000      8.26497000     15.07840000     -0.05907840     -0.05119180     -0.01956360       1
O              20.30770000     15.68590000     11.54680000      0.01716620     -0.01210920     -0.02470070       8
H              21.09180000     16.14320000      9.94200000     -0.01186340      0.02570580      0.00456640       1
H              20.94250000     13.98270000     11.43070000     -0.00622193     -0.01375000      0.02043660       1
O               7.93230000     21.55260000     22.20480000      0.02368890     -0.06826040     -0.01180220       8
H               7.05537000     22.94850000     21.80520000     -0.04590540      0.06789120     -0.03278530       1
H               8.45244000     21.94510000     23.82260000      0.02084080     -0.00078555      0.04553100       1
O              24.23780000     13.50580000      5.53020000      0.06113190     -0.01918410     -0.04470260       8
H              23.50750000     15.06330000      5.52334000     -0.01888770      0.06732650     -0.00873553       1
H              23.23220000     12.73080000      6.64972000     -0.04280280     -0.04929740      0.05804890       1
O               4.31346000     11.21450000     23.40710000     -0.02530250      0.03665920     -0.03595710       8
H               4.83933000     11.47480000     25.04510000      0.01004920      0.01162850      0.05174370       1
H               5.00899000      9.67164000     23.04180000      0.01659210     -0.05018420     -0.01476970       1
O              15.37820000     22.99720000     22.28660000     -0.01331080     -0.03950520     -0.04142290       8
H              15.00070000     21.64660000     20.98840000      0.01508050      0.01723630      0.03447290       1
H              15.07250000     24.38230000     21.16910000      0.00047204      0.01851580      0.00628286       1
O              21.18490000      5.98294000      5.36034000     -0.04331750     -0.06845630      0.08829720       8
H              20.78280000      7.39503000      4.54840000     -0.00020168      0.06830530     -0.06546720       1
H              22.55870000      4.98613000      4.91741000      0.03468730     -0.00378036     -0.02102990       1
O              22.81260000     10.46090000     10.80290000     -0.05823860      0.03624210      0.05304940       8
H              22.87950000      9.65097000     12.45140000     -0.02160310      0.01460250      0.00120012       1
H              24.06520000      9.51532000     10.20150000      0.07725870     -0.04622840     -0.05616900       1
O              11.23840000      1.11616000     24.67770000     -0.05000930     -0.11259700      0.05059680       8
H              11.52780000      0.86199500     23.03270000      0.02137270     -0.00032880     -0.07698980       1
H              11.49750000      2.64994000     25.22010000      0.02888420      0.10641100      0.02813080       1
O               8.07578000      5.66545000      2.45564000     -0.04729490      0.00945181      0.06454240       8
H               9.54622000      5.06541000      1.80570000      0.05523570     -0.02090100     -0.02386200       1
H               8.23723000      5.19883000      4.29559000     -0.01105010      0.00775428     -0.03468370       1
O              21.36370000      9.65520000      1.69594000     -0.10027400     -0.04111030      0.00295015       8
H              22.59700000      9.30473000      0.60001200      0.06652560     -0.01446180     -0.05621700       1
H              21.93270000     10.78790000      2.80197000      0.03534530      0.06500370      0.05158140       1
O              22.16360000      1.85404000     22.14620000     -0.06003230     -0.03650440     -0.01330490       8
H              23.24690000      2.86185000     23.02130000      0.05198730      0.04276660      0.03129210       1
H              20.78000000      1.79015000     23.38550000     -0.00049010     -0.00532607     -0.01531710       1
O              25.85430000      3.78325000     25.18940000      0.00138885      0.03109670     -0.11931300       8
H              25.77750000      3.68658000     26.86310000     -0.00165050      0.00943953      0.09518010       1
H              25.95720000      5.58677000     24.55720000      0.00176911     -0.03473660      0.02621130       1
O              16.55900000     18.38570000      4.85393000      0.00561718      0.00049922     -0.05113340       8
H              15.67220000     19.01520000      3.33235000      0.03713510     -0.01310290     -0.01563200       1
H              15.16270000     18.80660000      5.75927000     -0.04562800      0.00737456      0.06748230       1
O              17.42060000      2.28494000     25.49510000      0.01609920      0.12248500     -0.11353600       8
H              17.20520000      1.20590000     26.76180000     -0.03200960     -0.03750340      0.07713620       1
H              16.55720000      4.12080000     25.25400000      0.02238100     -0.08822320      0.03329430       1
O              24.37080000     24.21770000     26.44280000     -0.02807400     -0.09866690      0.05323480       8
H              24.08350000     25.60570000     25.58390000     -0.00951113      0.09406880     -0.05795680       1
H              26.05060000     23.92390000     26.79000000      0.03990150      0.00244207      0.00185550       1
O              -0.31754400      4.22975000      4.69113000     -0.06922870     -0.00514935     -0.11179300       8
H              -0.04076800      2.67523000      5.25560000      0.02641800     -0.07398470      0.04915000       1
H               0.27514500      5.58729000      5.43515000      0.04729960      0.07436610      0.06396050       1
O               6.92858000      1.84372000     15.60840000     -0.06570330     -0.01840100     -0.03302020       8
H               6.57071000      3.12180000     14.36600000     -0.01343970      0.00075208      0.00407229       1
H               8.48312000      2.34063000     16.07350000      0.08174410      0.01777960      0.02886940       1
O              12.09970000      4.54455000     15.84190000     -0.08150500      0.06160470      0.04511360       8
H              11.12230000      6.16550000     15.31520000      0.03448050     -0.04801400      0.01085400       1
H              13.18120000      4.10057000     14.58870000      0.04737490     -0.01181810     -0.05522390       1
O              14.18360000     15.76440000     22.38690000     -0.09085880      0.08962320      0.02661010       8
H              12.66810000     16.17650000     21.28580000      0.03008830     -0.00910783      0.01744130       1
H              15.09370000     14.55010000     21.71640000      0.05679500     -0.08760560     -0.04265080       1
O              23.45520000     16.93290000     20.30990000      0.03000940     -0.00253353     -0.07371540       8
H              23.01880000     16.93410000     21.95550000     -0.02381700      0.00437450      0.07240660       1
H              25.26380000     17.13210000     20.33070000      0.00043523     -0.00474016      0.00383597       1
O               5.39564000      0.22712700     20.68900000      0.04296300     -0.01283040      0.08744570       8
H               3.68421000      0.20022900     20.79690000     -0.06350430     -0.00570480      0.00170666       1
H               5.76633000      0.42015300     19.05660000      0.01986560      0.01395700     -0.08682520       1
O              10.90340000     19.73420000      6.76357000      0.10119600      0.01846770      0.05295960       8
H              10.71530000     20.66040000      5.36033000     -0.01250680      0.04473330     -0.07091300       1
H               9.57611000     18.76720000      7.01095000     -0.08750580     -0.06121650      0.01413140       1
O              12.46820000     22.26900000     11.39600000      0.02113280     -0.00156039      0.04447700       8
H              13.80330000     21.24850000     12.27000000     -0.01925860      0.01386600     -0.01723890       1
H              12.11780000     21.52360000      9.82610000     -0.00391404     -0.01649540     -0.02225700       1
O               4.89545000     17.28590000      9.84161000      0.00128093      0.01451530     -0.05490740       8
H               5.03132000     16.48130000     11.38720000      0.00288812      0.00338128      0.04583670       1
H               4.64016000     19.10120000      9.86401000     -0.00108029     -0.01654990      0.01666000       1
O              16.72200000     19.25460000     13.49760000      0.00156108     -0.04367580     -0.10728200       8
H              17.01780000     19.05420000     15.15730000      0.01786320     -0.00390785      0.08290900       1
H              17.53130000     17.64030000     12.69950000     -0.01852810      0.05151630      0.02182920       1
O              18.29460000     11.71400000     20.30650000      0.02093350     -0.09937250     -0.00301940       8
H              18.75070000     13.13400000     19.47030000      0.02144010      0.06028000     -0.03145680       1
H              19.52760000     10.40720000     19.44480000     -0.04032690      0.04108590      0.03335470       1
O               5.72938000     10.64730000      2.51721000     -0.00243146      0.19277600      0.03511120       8
H               5.74027000      9.01094000      2.72892000      0.00106248     -0.11638400      0.03413340       1
H               5.54455000     11.89420000      4.24419000     -0.00000268     -0.07390560     -0.07125980       1
O              20.22340000      8.13100000     15.53700000     -0.08546320      0.03323760      0.00027576       8
H              19.69720000      6.44183000     15.74360000      0.01960510     -0.03460410      0.00264562       1
H              18.31350000      8.69471000     15.52430000      0.06583970      0.00534410     -0.00681594       1
O              16.11640000      3.72112000     12.29110000      0.08354850     -0.04945780      0.07484250       8
H              16.35400000      5.10994000     11.22800000      0.01731290      0.03046380     -0.01743600       1
H              18.25520000      3.21073000     13.35650000     -0.09956720      0.02565630     -0.05121800       1
O               3.29481000     12.62130000      7.63602000      0.10358400     -0.03197730      0.01376860       8
H               3.96601000     14.04770000      8.51171000     -0.00330947      0.01130030     -0.00046094       1
H               1.67848000     12.89650000      7.31530000     -0.10020700      0.02447790     -0.02374550       1
O              20.38850000      3.10208000     16.89750000     -0.01914940     -0.01795530     -0.06166030       8
H              21.35680000      1.61040000     17.03790000      0.00745955     -0.03448160     -0.03635980       1
H              20.83500000      3.43449000     18.48770000      0.00849952      0.04872570      0.09816650       1
O               1.93431000      5.16041000     18.77940000     -0.05793140     -0.11115600     -0.08413670       8
H               1.73695000      3.13718000     19.13480000      0.00151227      0.07734790     -0.00843527       1
H               2.65986000      5.91047000     20.06690000      0.05198330      0.03938280      0.09362890       1
O               2.63404000     16.31590000     21.50630000     -0.03145490     -0.08802840     -0.06402540       8
H               3.82888000     14.97330000     20.88790000     -0.03992110      0.00733314      0.01055450       1
H               3.85839000     17.21240000     22.17480000      0.07188460      0.08167870      0.05667390       1
O               1.38287000     22.00450000     12.41850000     -0.03144240     -0.02662380      0.00891385       8
H               2.92757000     22.42320000     13.17650000      0.02788920      0.00719594      0.00788769       1
H               0.73777500     20.65090000     13.54940000     -0.00156737      0.01915100     -0.01784330       1
O              24.35790000     18.00470000     15.18340000      0.04649420      0.01671250     -0.01997180       8
H              22.99130000     17.62480000     14.12360000     -0.02409240     -0.00916892     -0.00434768       1
H              24.06320000     17.69580000     16.90730000     -0.02017640     -0.00640317      0.01635780       1
O              10.08690000     17.58520000     19.38480000      0.01714070     -0.03153220     -0.01051780       8
H               9.36285000     18.85890000     20.36650000     -0.01626810      0.03242060      0.02177660       1
H               9.43605000     17.81400000     17.73010000     -0.00046113     -0.00008078     -0.00910020       1
O               1.40410000      7.97083000      9.63254000     -0.09768310     -0.02558260     -0.03163260       8
H               2.29589000      7.08225000     10.76090000      0.04771380     -0.03354660      0.05560670       1
H               2.28549000      9.23661000      8.92978000      0.04991760      0.05959250     -0.02475660       1
O              22.98580000     25.54640000     13.93150000     -0.06733160      0.02782080     -0.03446620       8
H              21.81820000     25.43570000     12.36030000      0.02549590      0.00065041      0.04842340       1
H              24.33790000     24.56510000     13.47300000      0.04241140     -0.03258120     -0.01248240       1
O               9.75132000     22.91080000      1.43351000      0.08518930     -0.09581900     -0.01398190       8
H               8.35057000     23.20490000      2.24882000     -0.10352000      0.03598330      0.05252370       1
H              10.28970000     24.18180000      0.43100200      0.01851720      0.06456790     -0.03565440       1
O               5.38864000     25.73830000      4.16807000     -0.00846326     -0.06754760     -0.08291370       8
H               6.23583000     26.67980000      5.23528000      0.06568070      0.06719230      0.06772370       1
H               3.77567000     25.91100000      4.75148000     -0.05889480     -0.00210944      0.01503780       1
O              25.55330000      9.45764000     24.25770000     -0.04027860     -0.00415190     -0.01308700       8
H              26.82860000     10.59110000     23.95820000      0.08346580      0.02103900      0.02316890       1
H              24.76020000     10.47310000     22.96700000     -0.04532330     -0.02160000     -0.00816617       1
O              14.39130000      1.55941000     20.12020000     -0.09024090      0.02700230     -0.06195260       8
H              15.95600000      2.01263000     20.45820000      0.10971500      0.01186360      0.04191440       1
H              14.17710000      3.00838000     18.87620000     -0.02155250     -0.03729220      0.01591010       1
O              16.87630000      7.84982000      8.76181000      0.02351420     -0.04751410      0.01705990       8
H              18.08840000      7.12212000      7.59793000      0.00445245     -0.00318652      0.01233390       1
H              16.28630000      9.15143000      7.79471000     -0.02618160      0.04609260     -0.03324370       1
O              17.64930000      1.50805000      6.17159000      0.05823940     -0.01974340     -0.02600280       8
H              16.17210000      2.19886000      6.63952000     -0.07896430      0.01349830      0.02910740       1
H              18.50980000      3.04928000      5.78731000      0.02390250      0.00351015     -0.00530249       1
O              15.18510000     11.28380000      4.82356000      0.09078130     -0.08076580      0.07842500       8
H              15.68710000     12.87700000      4.84216000      0.01863080      0.09460040     -0.01037540       1
H              13.78830000     10.93060000      4.04707000     -0.10996600     -0.01215420     -0.06871520       1
O              24.01580000      9.62225000     19.04890000     -0.04849910      0.02343810     -0.01405880       8
H              23.56250000      8.70644000     17.56990000     -0.03067920      0.00613700     -0.01421340       1
H              25.48870000      8.78217000     19.14810000      0.07917200     -0.03145350      0.02746820       1
O               3.82425000     16.35410000     15.50950000      0.01361370     -0.01861750     -0.05992560       8
H               2.34433000     17.03500000     14.63080000      0.00722467     -0.00225851      0.04454170       1
H               4.35658000     16.43760000     17.20340000     -0.02535800      0.01871710      0.01205200       1
O               7.88940000      3.58211000      7.79998000      0.00953037     -0.06915830      0.05176250       8
H               8.89631000      1.91767000      8.16177000     -0.00831650      0.05102010     -0.02065290       1
H               6.95425000      3.42115000      9.43224000      0.00583100      0.01935600     -0.03115720       1
O              21.86870000     24.11740000      4.98067000      0.07553280     -0.03629810      0.08085220       8
H              22.56210000     23.43170000      3.57620000      0.00449562     -0.00751137     -0.06605090       1
H              20.44220000     24.97380000      5.16466000     -0.08227200      0.04372860     -0.01267920       1
O              13.21790000      5.59937000      0.51991900      0.03825970     -0.05302270      0.01945850       8
H              12.22860000      6.87979000     -0.05857200     -0.02867850      0.06066960     -0.01558910       1
H              14.18540000      6.18106000      1.94103000     -0.00577988      0.00398276     -0.00384272       1
O              17.82680000     18.49210000     18.82800000     -0.04009020     -0.06880410      0.03327030       8
H              19.14050000     18.44860000     20.22050000     -0.03114920     -0.00327342     -0.02854590       1
H              16.44630000     16.89720000     19.16220000      0.06943230      0.07869900     -0.00570856       1
