192
TotEnergy=-1103.57481000 cutoff=-1.00000000 nneightol=1.20000000 pbc="T T T" Lattice="24.43420000       0.00000000       0.00000000      -0.00000100      24.43420000       0.00000000      -0.00000100      -0.00000100      24.43420000" Properties=species:S:1:pos:R:3:force:R:3:Z:I:1
O              20.80250000      2.14631000    -32.43150000     -0.04352240     -0.04808910     -0.06884530       8
H              20.58030000      2.50217000    -30.77860000      0.00329602      0.02538830      0.07638190       1
H              19.25130000      0.85394200    -32.64250000      0.04275680      0.02681610     -0.00832615       1
O              47.42040000     43.85560000     10.00020000      0.01884730     -0.01237100      0.02831410       8
H              48.62570000     42.40630000     10.43290000     -0.02330810      0.03432710     -0.03036190       1
H              46.94990000     44.27770000      8.28878000      0.01028170     -0.01565230     -0.00127196       1
O              13.23700000     -0.56336400     18.83490000      0.01378830      0.03802350      0.05823430       8
H              11.68850000     -1.23879000     18.50160000     -0.05501960     -0.02204680     -0.01240930       1
H              14.28280000     -1.03470000     17.54580000      0.04029290     -0.01400190     -0.04521490       1
O              -3.75211000     -8.72887000      0.77589100      0.05993930     -0.09839360      0.01637480       8
H              -4.68378000     -7.41174000      0.28480400     -0.04772380      0.07650970     -0.00531623       1
H              -3.86157000     -9.25653000      2.54059000     -0.01275520      0.01891020     -0.01069140       1
O               6.40379000     32.22770000     20.96920000      0.02973340      0.01554520     -0.02295350       8
H               7.04813000     33.85960000     20.14540000     -0.01474610     -0.03411450      0.01131650       1
H               7.64475000     30.95740000     20.40220000     -0.01398800      0.01314010      0.01039420       1
O              -1.18895000     13.09650000      9.44528000      0.01440890      0.00011608     -0.00269461       8
H              -0.41285800     12.32710000      7.98148000     -0.00325540     -0.00747848      0.00053914       1
H               0.31536400     13.72320000     10.35310000     -0.01261820     -0.00108760     -0.00040517       1
O              37.48930000     23.45710000     11.78970000      0.04742020      0.02440630     -0.05172130       8
H              38.49880000     23.18920000     10.07200000     -0.03581240      0.00450966      0.04145300       1
H              36.38070000     22.08540000     12.01130000     -0.01521060     -0.02520270      0.00503235       1
O              -0.00528200    -24.97470000     13.09250000      0.03334020     -0.02453270     -0.02468620       8
H              -0.29027000    -26.25260000     11.78340000      0.01733420      0.00059119      0.00488886       1
H              -1.67026000    -24.62160000     13.40240000     -0.05060640      0.02050540      0.02352860       1
O              32.02990000    -36.81290000     18.41600000      0.00763676     -0.00360416     -0.01673750       8
H              33.55700000    -36.21070000     17.64230000      0.01298430     -0.01313250     -0.01086240       1
H              31.87930000    -35.39020000     19.46240000     -0.02405270      0.02130570      0.02559530       1
O              10.17390000    -27.32320000    -22.12940000     -0.02611490      0.03464890      0.01312960       8
H              11.74530000    -27.36880000    -23.13460000     -0.01743730      0.02028200      0.00752401       1
H               9.23101000    -25.53280000    -22.07130000      0.04095180     -0.04096290     -0.01559230       1
O             -12.68060000      4.20308000      5.34792000     -0.14612700     -0.09616390      0.07932080       8
H             -13.96360000      3.03675000      4.34897000      0.04566220      0.04470680      0.02642540       1
H             -11.54860000      4.83511000      4.36498000      0.09734800      0.04915270     -0.09798750       1
O             -11.22900000     34.12070000     50.81360000     -0.04711420     -0.00125671      0.02113330       8
H             -10.41890000     35.26880000     49.64640000     -0.01686380      0.00181123      0.00498149       1
H             -13.17600000     34.50170000     51.28320000      0.07128600      0.00545325     -0.01772560       1
O              15.76350000    -29.68100000    -20.27550000     -0.02481710      0.08532150     -0.05407870       8
H              17.11580000    -30.23970000    -19.44750000      0.07051750     -0.04214580      0.04602660       1
H              14.39760000    -30.66880000    -19.98790000     -0.05269550     -0.04812040      0.00948613       1
O              26.64310000     15.80240000     36.26030000      0.00512040      0.02515530      0.04894620       8
H              28.35340000     15.88320000     36.80900000      0.04044220     -0.01447350     -0.04318150       1
H              26.40350000     16.35730000     38.03770000     -0.05098110     -0.00535069     -0.01052780       1
O              -3.01584000      3.71067000     -2.43962000     -0.02332530      0.05692250     -0.03434510       8
H              -1.45775000      4.52335000     -2.97291000     -0.00245285      0.00001568      0.00124001       1
H              -2.67851000      2.22979000     -1.65704000      0.02157890     -0.05610950      0.02983380       1
O             -28.17750000     21.89210000     30.01040000     -0.01326630     -0.01360880      0.00160144       8
H             -29.85180000     22.09110000     30.71700000      0.00541548      0.00549266     -0.00077910       1
H             -27.41300000     23.52440000     29.86860000      0.00960702      0.01157040     -0.00045145       1
O             -30.93140000     11.48320000     23.22870000     -0.01711510      0.00439204     -0.01704320       8
H             -31.50570000     11.70210000     21.51750000     -0.00515987     -0.01027620     -0.00382751       1
H             -29.94740000     12.96990000     23.47610000      0.01542280      0.01207550      0.02104400       1
O             -15.54780000     60.84400000    -20.50870000     -0.01072060     -0.00910593     -0.00887475       8
H             -15.68360000     60.72480000    -18.68100000      0.00102503     -0.00398057     -0.00207691       1
H             -16.94020000     59.80860000    -21.23480000      0.00810397      0.00554290      0.01223950       1
O              66.10740000     23.31080000     39.66080000     -0.02564160      0.00223267     -0.02730410       8
H              64.94660000     23.92520000     38.31280000      0.00993893     -0.00739690      0.02090560       1
H              66.76760000     21.70550000     38.93110000      0.00686127      0.01125580      0.01239460       1
O              56.44900000    -22.94930000      2.51910000      0.02984970      0.00034797     -0.02016940       8
H              55.19860000    -23.36060000      3.78532000     -0.01818690      0.02062170      0.00350043       1
H              56.14590000    -21.75790000      1.11018000     -0.01167120     -0.01959160      0.02967500       1
O              31.90660000     16.25630000    -14.08370000     -0.05502130      0.08634880      0.00767562       8
H              32.88060000     14.91140000    -14.08250000      0.05383350     -0.10300400     -0.01651640       1
H              32.81600000     17.16710000    -12.78080000     -0.00256062      0.02058130      0.00463914       1
O             -10.08040000      7.41067000     62.69590000      0.02018550     -0.01691490     -0.02081820       8
H             -11.11140000      6.17162000     61.70450000      0.00614871      0.01308860      0.01152930       1
H              -8.29563000      6.79656000     62.34190000     -0.03010310      0.00426252      0.00742062       1
O               5.52479000      1.99638000     -3.17018000     -0.00512314     -0.02273320      0.00852702       8
H               5.62446000      0.28110500     -2.47591000      0.00302223      0.01148170     -0.00118684       1
H               4.53637000      1.67172000     -4.65859000      0.00096386      0.00759040     -0.00776116       1
O              42.20670000      6.71449000     24.48960000     -0.01189270      0.05363880     -0.01559070       8
H              42.02810000      8.71715000     23.96080000      0.01995250     -0.06699590      0.01377760       1
H              43.25600000      5.78995000     23.31000000      0.01274440      0.01073900     -0.00178437       1
O               0.96777000     58.59860000     29.92110000      0.05962540      0.01759420     -0.00669859       8
H              -0.44875700     57.81730000     29.26590000     -0.04392780     -0.02280120     -0.01242770       1
H               2.22262000     58.48020000     28.54370000     -0.01505270      0.00636377      0.01709410       1
O               8.88624000     35.43490000      9.33940000     -0.10665400      0.05841580     -0.09838310       8
H               7.56380000     34.50120000      9.98976000     -0.03312940     -0.02671810      0.01731400       1
H              10.27730000     35.17360000     10.10020000      0.13908300     -0.03305800      0.07821140       1
O             -15.81850000     20.53600000     18.17850000      0.03936270     -0.02787480      0.06310240       8
H             -17.56290000     20.26680000     18.33200000     -0.03446120      0.00549338     -0.00556977       1
H             -15.25340000     19.80680000     19.94210000     -0.00508830      0.01917320     -0.05738780       1
O              30.10300000     33.15800000     50.52160000     -0.01267080     -0.00377515      0.03214480       8
H              31.01050000     33.15750000     48.97380000     -0.00268137     -0.01250440     -0.02156920       1
H              29.26860000     31.49240000     50.74100000      0.00864369      0.01510330     -0.01313310       1
O              14.81550000     34.12820000     19.26640000      0.00601524     -0.00131623      0.00901692       8
H              14.63810000     33.45950000     17.58840000     -0.00075266     -0.01016230     -0.00163154       1
H              14.71360000     32.70880000     20.43470000     -0.00703226      0.00582370     -0.01376150       1
O              -0.15536200    -25.60680000     22.68360000      0.02555590     -0.03968500      0.02833530       8
H              -1.50579000    -26.70070000     23.21670000     -0.03730470      0.00784935     -0.01083950       1
H               0.97471500    -26.77830000     23.63610000      0.01380500      0.03042810     -0.01353100       1
O               5.10326000     15.50930000     -2.32447000     -0.05028190      0.09133190     -0.07308320       8
H               5.51389000     14.28350000     -1.26244000      0.00934550     -0.06998830      0.06424770       1
H               3.17130000     15.72330000     -2.50989000      0.04403150     -0.02339820      0.00794450       1
O               2.79972000      3.58325000     15.50330000     -0.02148190     -0.03058020     -0.02139400       8
H               1.34656000      2.62344000     14.75860000      0.02934460      0.01460660      0.01025210       1
H               2.02073000      4.62928000     16.73480000     -0.00616826      0.01447030      0.01256630       1
O             -36.90700000     53.87560000    -27.87860000      0.00690010     -0.01422040     -0.00520106       8
H             -36.57200000     52.22770000    -28.61990000     -0.00434583      0.00765807     -0.00475193       1
H             -36.14070000     53.60590000    -26.26060000     -0.00592174      0.00215651      0.00871795       1
O               4.83127000     49.17650000    -17.41130000      0.01290380     -0.09218770     -0.05718770       8
H               5.81704000     49.78240000    -16.08170000      0.01209560      0.01514210      0.02817660       1
H               5.58536000     47.11400000    -17.78020000     -0.02348210      0.06464670      0.02224710       1
O             -32.35020000     35.64340000      6.10311000     -0.05837300     -0.02257350     -0.02979270       8
H             -33.69580000     34.87820000      4.83749000      0.02734630      0.03055560      0.02823000       1
H             -31.14350000     34.31470000      6.02535000      0.02596820     -0.01489680      0.00003427       1
O              20.36610000     34.60690000     12.80420000     -0.01540400      0.00946811     -0.00334491       8
H              18.61030000     35.14540000     12.41410000      0.02296310     -0.00008293      0.00098984       1
H              21.47620000     35.59160000     11.69320000     -0.00583406     -0.00336412     -0.00214127       1
O             -13.08390000    -20.35210000     10.79720000      0.02078850     -0.07799820     -0.05893570       8
H             -12.72520000    -20.24380000      8.76004000     -0.01530230     -0.00050409      0.06451350       1
H             -12.73910000    -22.41590000     11.13160000     -0.00429286      0.07162200     -0.00692225       1
O             -48.15240000      6.63200000     19.66670000      0.06271200     -0.11092800      0.06524190       8
H             -48.54700000      8.08497000     18.93880000     -0.02000220      0.09155060     -0.03796810       1
H             -46.45760000      6.62197000     20.57600000     -0.03885850      0.01587780     -0.02590780       1
O             -20.71630000    -15.78950000     34.65330000      0.00076563     -0.04409430     -0.03623060       8
H             -20.39680000    -17.65760000     34.98760000      0.00433957      0.03254420     -0.00329873       1
H             -21.24180000    -15.83100000     32.81090000      0.00249994      0.00981827      0.04028530       1
O              19.23180000     15.37600000     30.81820000     -0.04197620     -0.02556790     -0.00690155       8
H              20.76760000     14.81820000     31.50150000      0.02655120     -0.00068272      0.01834920       1
H              18.12230000     13.79000000     31.06030000      0.01989540      0.03976370     -0.01787120       1
O             -21.85600000     -2.59454000     42.61110000     -0.04850160      0.05886580      0.00320559       8
H             -22.58050000     -1.86508000     44.30770000      0.01266620     -0.02633980     -0.04712560       1
H             -22.80660000     -1.44622000     41.28570000      0.03371810     -0.03710660      0.03697650       1
O              44.34750000      3.51313000     32.34210000     -0.00120393     -0.00029535      0.01921470       8
H              43.92520000      3.91964000     34.18180000     -0.00164962     -0.01706100     -0.02888210       1
H              43.42830000      2.10914000     31.60100000     -0.00189150      0.01353120      0.01799390       1
O              -9.28446000    -32.63950000    -10.20090000     -0.03045210     -0.07568740     -0.04005480       8
H              -7.88432000    -31.65120000     -9.91244000      0.04385800      0.02698160      0.00041493       1
H              -8.77049000    -34.18190000    -11.38050000     -0.01621890      0.04338690      0.03206100       1
O              54.84310000    -20.56460000    -13.23180000      0.05311080     -0.01057280      0.00152794       8
H              56.89070000    -20.79950000    -13.29190000     -0.06842890      0.01822370      0.01278910       1
H              54.06710000    -20.82380000    -11.55360000      0.01736260     -0.00063687     -0.01214130       1
O              15.02690000     -0.86564400      6.90597000      0.01474000     -0.09622640     -0.03370200       8
H              14.18410000      0.49878500      6.27769000     -0.03039830      0.05591220     -0.01976230       1
H              14.63020000     -2.31652000      5.41701000      0.02435200      0.04096920      0.05686160       1
O             -36.43760000     -6.77574000     46.44370000     -0.00587464     -0.01827200      0.03202140       8
H             -36.15880000     -8.03086000     45.06850000     -0.00684072      0.00317217      0.02269180       1
H             -36.65930000     -7.62434000     48.17440000      0.00599988      0.01340040     -0.04620260       1
O               3.05593000    -13.34400000     -9.74630000     -0.10550000     -0.00887606     -0.09544800       8
H               4.46565000    -13.47040000     -8.94445000      0.12433700     -0.00619438      0.08080940       1
H               3.41489000    -14.32250000    -11.37330000     -0.02123250      0.02018280      0.02225640       1
O              19.80900000     19.41570000     13.94910000     -0.05296040      0.00176522      0.03613080       8
H              20.76510000     19.31420000     12.51210000      0.03244420     -0.00108434     -0.06177560       1
H              20.88260000     18.71070000     15.17510000      0.01924330     -0.00884250      0.02481240       1
O              10.45630000     18.75860000    -10.82720000     -0.02515410      0.01287590      0.01758990       8
H              11.96760000     17.71000000    -11.08560000     -0.00829486      0.00889442      0.02900850       1
H               9.63735000     19.11610000     -9.04957000      0.04100970     -0.01621070     -0.03934180       1
O              24.15570000     50.58660000     29.70180000     -0.05058060      0.01179780     -0.07750650       8
H              23.46400000     51.47600000     31.01360000     -0.02214270      0.03109350      0.04139360       1
H              25.47510000     49.72410000     30.29920000      0.07661850     -0.04295600      0.03603960       1
O              -4.22207000      7.65710000      5.06310000      0.01979190      0.07173410      0.00603092       8
H              -4.18933000      6.37757000      6.24555000     -0.00436847     -0.04712060      0.02276280       1
H              -4.83246000      7.17521000      3.49562000     -0.01697650     -0.02192030     -0.03743590       1
O              14.46500000    -26.80190000     23.75250000      0.01974440      0.07971290     -0.01180100       8
H              14.12100000    -28.43470000     23.56900000     -0.01364280     -0.10904500      0.00537912       1
H              14.33840000    -26.55160000     21.93110000     -0.00294689      0.02926370      0.00210802       1
O              -4.78307000     20.93160000     49.33250000      0.15617200     -0.04500020      0.08765620       8
H              -6.19632000     21.44320000     48.72050000     -0.13542400      0.05059760     -0.04055070       1
H              -4.55321000     21.20000000     51.25800000     -0.01361900     -0.00334236     -0.05123050       1
O              35.67470000     40.94730000      3.01701000      0.00481585     -0.01433160     -0.00906743       8
H              34.30940000     41.99840000      2.52142000     -0.00734603      0.01350240      0.00070645       1
H              34.89560000     39.27940000      3.08256000      0.00284443     -0.00081128      0.00695222       1
O              24.14220000     17.53980000    -32.61490000      0.04117260     -0.04503170      0.06780630       8
H              24.52710000     16.09980000    -31.14600000     -0.02216960      0.06321460     -0.05479590       1
H              25.24140000     18.94910000    -31.98650000     -0.01700800     -0.01221730     -0.00406507       1
O             -19.44050000     45.47630000     -0.30585900      0.02824270      0.04195140      0.06811960       8
H             -18.69320000     44.02410000     -1.03175000      0.00735165     -0.01787240      0.00027755       1
H             -18.37330000     45.91890000      1.38146000     -0.04089300     -0.02639840     -0.07365630       1
O               6.94266000    -28.92720000     30.62290000      0.04090280      0.06565800     -0.08511590       8
H               7.20585000    -30.04030000     31.93740000      0.01549850     -0.03498670      0.03722190       1
H               8.64950000    -28.47220000     29.52450000     -0.05545940     -0.02404500      0.04302500       1
O               2.78224000     28.88210000      0.81316100     -0.00346675     -0.01575290      0.00850377       8
H               3.54630000     27.97280000     -0.62679800     -0.01165630      0.00172265      0.01426960       1
H               1.84182000     27.71840000      1.94639000      0.01404280      0.01459880     -0.02127110       1
O              -9.11304000    -12.67200000     11.16690000     -0.00064122     -0.00613169      0.00588459       8
H              -9.74780000    -14.28100000     12.06510000      0.01294940      0.02146790     -0.02842550       1
H              -8.63939000    -12.72420000      9.31320000     -0.01719380     -0.01710650      0.02831870       1
O              -5.46692000      5.20801000     12.63510000     -0.04247150     -0.03744480     -0.01750560       8
H              -4.52199000      6.64910000     12.50250000      0.03581690      0.05923920     -0.00407761       1
H              -4.90988000      4.41291000     14.14090000      0.01258680     -0.02034200      0.02386570       1
O              24.51770000    -10.03550000     -3.26684000      0.00307959     -0.01640040     -0.03939960       8
H              24.15780000    -11.30590000     -4.78525000     -0.00812974      0.02097500      0.05192490       1
H              23.29180000    -10.11130000     -1.90876000     -0.00113769     -0.00172163     -0.01044880       1
O              23.19940000     11.01720000     41.99010000      0.03506010      0.02946110     -0.04789860       8
H              21.99920000     11.50580000     40.61310000      0.01168450     -0.01557530      0.02215170       1
H              24.91400000     11.27750000     40.97870000     -0.03756990     -0.01669800      0.01618660       1
O              14.62330000     27.62840000     50.03620000      0.01881500      0.03934320     -0.04621950       8
H              15.57790000     28.94490000     48.83010000     -0.02735320     -0.01719820      0.04963610       1
H              16.05230000     26.57010000     50.15400000      0.00623767     -0.02353160      0.00764303       1
O             -11.90750000     14.20220000     18.30630000     -0.06291760      0.04320370      0.02514680       8
H             -11.05960000     15.07240000     17.05650000      0.02890770      0.01962780     -0.04324410       1
H             -11.15840000     12.68740000     18.59250000      0.03507210     -0.06289370      0.01444450       1
