192
TotEnergy=-1103.52303000 cutoff=-1.00000000 nneightol=1.20000000 pbc="T T T" Lattice="24.27516000       0.00000000       0.00000000      -0.00000100      24.27516000       0.00000000      -0.00000100      -0.00000100      24.27516000" Properties=species:S:1:pos:R:3:force:R:3:Z:I:1
O              23.26800000     -4.25793000    -28.10430000      0.04454550     -0.02790040      0.00104685       8
H              21.77140000     -4.36160000    -29.00490000     -0.03560500      0.00653304     -0.01840040       1
H              24.32480000     -5.73130000    -28.80410000     -0.00777035      0.02296600      0.01967170       1
O              46.71410000     44.21570000      1.18772000     -0.00642331      0.03209520     -0.00264483       8
H              46.46420000     45.97890000      1.80631000      0.00854304     -0.02454250     -0.00879270       1
H              47.24820000     44.47400000     -0.59878200     -0.00163091     -0.00889977      0.01652120       1
O              11.06320000      2.05068000     14.23460000     -0.01613330     -0.02186860     -0.06966500       8
H              11.68900000      2.55753000     15.72400000      0.03990390      0.04284490      0.07224200       1
H              10.26680000      0.53247100     14.75920000     -0.01733140     -0.02693950     -0.00757880       1
O              -3.61732000    -10.90000000     -1.04399000     -0.04075430      0.00655964      0.12680600       8
H              -3.11986000    -11.19360000     -2.58975000      0.03432320     -0.02598430     -0.11965500       1
H              -4.47942000     -9.31478000     -0.99620600      0.00272693      0.01458350     -0.00900279       1
O               5.48479000     31.40070000     18.02080000      0.04823010     -0.00445172     -0.03852390       8
H               6.34793000     32.84310000     18.74470000     -0.00117487     -0.00685709      0.00704774       1
H               6.79793000     30.96330000     16.56980000     -0.03809450      0.00945250      0.03291030       1
O              -5.53476000     11.35910000      9.14197000     -0.02719060     -0.01351290      0.03242420       8
H              -6.48905000      9.98144000     10.21860000      0.03625500      0.02387030     -0.04265240       1
H              -4.78634000     10.89570000      7.53819000     -0.00351027     -0.00982594      0.00760616       1
O              45.13300000     24.75010000     12.97510000      0.02428380      0.00792363     -0.03503430       8
H              46.90030000     25.57930000     13.11170000     -0.04675620     -0.01711700     -0.01225660       1
H              44.57440000     24.45720000     11.15120000      0.02847240      0.00581358      0.04232300       1
O               0.12626200    -29.46860000      9.97800000     -0.04923970     -0.01560140     -0.02991970       8
H               0.30105000    -30.76580000      8.51691000     -0.00634890      0.03651920      0.03104410       1
H              -1.71119000    -28.78500000      9.81981000      0.05762400     -0.01898180     -0.00300998       1
O              35.02740000    -34.24230000     20.04960000     -0.03927440     -0.12624800     -0.00317033       8
H              34.50880000    -32.73800000     20.61700000     -0.01880280      0.08857160      0.02746010       1
H              33.58730000    -35.45770000     20.83960000      0.05185910      0.03509670     -0.02227720       1
O              10.19090000    -28.87360000    -26.65600000      0.06655030      0.03317540      0.02520230       8
H              11.92430000    -27.85980000    -26.86860000     -0.05508370     -0.03692580      0.00038458       1
H              10.26200000    -29.23420000    -24.78610000     -0.01279050      0.00187506     -0.02687600       1
O              -8.42013000      3.85614000      7.17919000     -0.01577680     -0.06436200      0.04265380       8
H              -9.96150000      3.04019000      6.45263000      0.01924230      0.01452980      0.00062762       1
H              -8.13692000      2.49915000      8.74337000     -0.01166890      0.04899160     -0.04771820       1
O             -12.24060000     25.49540000     52.74980000     -0.00878679      0.00045664      0.02891720       8
H             -13.86820000     26.10120000     52.23440000     -0.01249320      0.00265131      0.00198780       1
H             -11.33520000     25.33030000     51.24310000      0.01702710     -0.00395190     -0.02911750       1
O              15.95830000    -29.66140000    -13.88390000     -0.06074670      0.00977141      0.06702520       8
H              15.55010000    -31.33740000    -14.55010000      0.00635420      0.00097360     -0.01126880       1
H              14.68860000    -29.68250000    -12.21340000      0.05559240      0.00394835     -0.04913940       1
O              29.59350000     16.42560000     36.95000000      0.01173880     -0.04254960     -0.00227187       8
H              28.29290000     15.23440000     36.16220000      0.03820060      0.02165600      0.02268510       1
H              31.09330000     15.37630000     37.72110000     -0.05553520      0.02088170     -0.01756220       1
O              -1.81588000      1.40862000      1.39930000     -0.01855310      0.01329340      0.03843310       8
H              -2.05942000      2.12119000      3.16481000     -0.00129271     -0.01543740     -0.02389420       1
H              -0.17197000      1.99612000      1.01610000      0.01576730     -0.00243244     -0.01212000       1
O             -28.18400000     22.15870000     32.13450000     -0.03006020      0.04765050     -0.02571600       8
H             -28.90820000     23.70180000     31.19700000      0.03679650     -0.02973240      0.02334910       1
H             -29.59990000     21.07310000     31.99330000     -0.00976335     -0.02052800      0.00541414       1
O             -32.84620000     11.28990000     24.76240000     -0.02249750     -0.00575297     -0.07513770       8
H             -33.87840000     10.59130000     23.02930000      0.03870850      0.01995810      0.05925660       1
H             -31.26230000     12.07710000     24.09760000     -0.01160510     -0.02006690      0.00084456       1
O             -18.56520000     63.16050000    -20.98230000      0.02727110     -0.05110020      0.04383270       8
H             -17.92600000     61.83350000    -19.40430000     -0.01621080      0.05991700     -0.02840480       1
H             -18.74600000     61.68320000    -22.03280000     -0.01251670      0.01345230     -0.01913810       1
O              68.06620000     20.84000000     40.44970000      0.10225600     -0.05049120      0.13100500       8
H              68.44310000     21.98620000     39.34730000      0.04245590      0.10717700     -0.09403420       1
H              66.59210000     20.32130000     40.06330000     -0.15084900     -0.05675150     -0.03551450       1
O              55.22980000    -21.58870000      3.11133000     -0.04360530     -0.00451282     -0.06165990       8
H              53.61450000    -21.47860000      4.04665000      0.01764460     -0.00110037     -0.00225974       1
H              54.63110000    -21.82490000      1.16912000      0.02860480      0.00942238      0.07111890       1
O              31.47780000     20.71670000    -13.99960000      0.02948820      0.09653750     -0.01681870       8
H              32.99270000     20.78880000    -15.02310000     -0.01006300     -0.01623220     -0.00220332       1
H              30.90060000     19.16240000    -13.61490000     -0.02427370     -0.08336620      0.01357180       1
O             -15.45230000      6.63956000     62.47510000     -0.00412447      0.06628450      0.01086700       8
H             -14.25250000      8.15009000     62.60960000     -0.01944260     -0.03515650     -0.00058469       1
H             -14.51870000      5.24926000     61.91460000      0.01782180     -0.02809750     -0.00375575       1
O               7.76033000      2.77600000     -1.97920000      0.02246910     -0.03007040      0.04228750       8
H               9.53528000      2.37705000     -1.71299000     -0.00839087     -0.00695535      0.01311520       1
H               7.96379000      3.54580000     -3.50079000     -0.01316050      0.03508600     -0.05982400       1
O              43.22830000      4.76144000     23.11840000      0.01596500     -0.01128390      0.04737960       8
H              43.00580000      5.87453000     24.67640000     -0.00565207     -0.01136900     -0.02631580       1
H              44.33330000      3.40665000     23.92780000     -0.01532260      0.02201830     -0.02439500       1
O              -2.57513000     60.30580000     28.86580000     -0.02091390     -0.00021115     -0.04390640       8
H              -3.69582000     59.61310000     27.49840000      0.02200480      0.00794024      0.02969590       1
H              -2.03889000     61.93200000     28.13890000      0.00107274     -0.01504070      0.01598500       1
O              10.52700000     37.29220000     10.67370000      0.02901260      0.01397600      0.00859386       8
H               9.55938000     36.41800000      9.48929000     -0.02585710     -0.01667850     -0.02699790       1
H              11.91270000     38.02560000      9.68600000     -0.00124529      0.00183022      0.00221361       1
O             -18.52280000     20.98060000     19.05810000      0.03479030      0.01223530      0.00927386       8
H             -19.37830000     19.34640000     19.33470000      0.01515640      0.00720193      0.00087653       1
H             -16.76050000     21.13550000     19.87190000     -0.05037220     -0.02201030     -0.00334805       1
O              30.53440000     32.60850000     51.59640000     -0.01109860      0.03024450     -0.01363070       8
H              30.98970000     30.95260000     51.96390000      0.01137010     -0.04000030      0.00852009       1
H              28.84820000     32.54230000     50.87090000      0.00290257      0.00652282     -0.00112283       1
O              13.27640000     33.68590000     20.42250000      0.03112460      0.15174500      0.06976180       8
H              13.15310000     35.39240000     19.51320000      0.00195207     -0.04255650      0.02009280       1
H              12.81210000     32.50910000     19.37830000     -0.02486670     -0.09886400     -0.08914170       1
O               2.01704000    -24.59970000     22.15740000      0.00861887     -0.02569600     -0.03673750       8
H               0.69794300    -25.79250000     21.49000000      0.01792810      0.01858190      0.01118280       1
H               3.53983000    -25.32300000     21.27230000     -0.02080740      0.01133080      0.01744420       1
O               0.48672300     16.18580000      4.98352000     -0.00660083      0.00364186      0.00953852       8
H               2.25351000     15.87210000      4.65218000      0.00235974     -0.00042394     -0.00989208       1
H              -0.13247000     17.40160000      3.77209000      0.00696369      0.00262868     -0.00191587       1
O               1.46304000      3.35078000     13.74510000      0.00999774     -0.05444030     -0.10362600       8
H               2.59852000      1.86630000     13.63700000     -0.01623500      0.02280130     -0.00313479       1
H               1.57455000      3.93385000     15.30320000      0.00294337      0.03260890      0.10942300       1
O             -34.76580000     53.33490000    -30.59020000     -0.08712040      0.01126040      0.05936880       8
H             -33.31170000     52.81240000    -31.35300000      0.06172200     -0.02325020     -0.02469280       1
H             -35.12170000     52.48950000    -28.94810000      0.01862070      0.00724167     -0.03075260       1
O               2.44438000     52.34170000    -17.44730000     -0.01705660     -0.09663230     -0.03849300       8
H               2.78727000     53.57080000    -16.29940000      0.01747670      0.03912960      0.04833610       1
H               2.47032000     50.52310000    -16.54830000     -0.00481383      0.06236780     -0.01305650       1
O             -33.77940000     40.03510000      2.86738000     -0.00860861      0.02694550     -0.01612630       8
H             -33.34230000     38.72860000      1.59545000     -0.02894510      0.00907422      0.01515800       1
H             -35.33400000     41.16290000      2.45780000      0.03061570     -0.03981410      0.00376629       1
O              20.15130000     37.29110000     13.89780000      0.01443960      0.05602210      0.06197050       8
H              21.07490000     38.99690000     14.44880000     -0.01727380     -0.04585970     -0.02160830       1
H              20.44670000     37.13860000     12.17170000      0.00094773     -0.00721920     -0.03586410       1
O             -17.75400000    -12.83300000      6.86880000     -0.01036770      0.03716520      0.05297740       8
H             -18.20590000    -13.88930000      5.48368000     -0.01145450     -0.03308200     -0.00621948       1
H             -19.23300000    -12.28580000      7.99362000      0.02342270     -0.01951720     -0.03015260       1
O             -47.11860000      4.05638000     19.01410000      0.00788761     -0.02942230      0.02119450       8
H             -46.83700000      2.36841000     19.89550000     -0.00847410      0.02840330     -0.00856141       1
H             -45.68190000      5.09885000     19.50350000     -0.00534586     -0.00133378     -0.00805445       1
O             -22.08300000    -12.10300000     34.62910000      0.08103660     -0.00430142      0.03740650       8
H             -21.37280000    -13.79230000     35.11790000     -0.01169080      0.01686820     -0.00408695       1
H             -23.55810000    -12.39250000     33.83230000     -0.06504190     -0.01194630     -0.03529510       1
O              14.89550000     14.77840000     32.18880000     -0.04897790      0.02966400     -0.00416796       8
H              16.21040000     13.73220000     32.57140000      0.05532720     -0.04956360      0.02464300       1
H              15.14780000     15.06460000     30.41110000     -0.01172420      0.00747249     -0.01662180       1
O             -21.67350000     -0.05431100     34.27920000      0.04975400     -0.06811410     -0.02465680       8
H             -19.94750000     -0.83007700     33.66490000     -0.04391880      0.02645360      0.02582770       1
H             -22.54300000     -1.74265000     34.32850000      0.00090057      0.02466600     -0.00029984       1
O              40.67720000      7.17853000     35.39460000     -0.00454484     -0.00743083      0.00665028       8
H              39.81720000      6.68948000     33.83680000      0.01191920     -0.01161300      0.01482130       1
H              41.11290000      5.70087000     36.53820000     -0.00665090      0.02086520     -0.01471440       1
O              -9.55452000    -34.50710000     -7.99147000     -0.04119150      0.02775710      0.02656990       8
H              -7.80852000    -34.23050000     -8.05934000      0.02040030     -0.02283120     -0.01737200       1
H             -10.43280000    -35.93810000     -8.70703000      0.02978420     -0.01209540     -0.01127730       1
O              52.82580000    -16.86940000    -13.30030000     -0.17995000     -0.03195430      0.01006460       8
H              54.28570000    -17.00570000    -12.64150000      0.17418000     -0.00081694      0.05239200       1
H              52.04800000    -17.91820000    -11.72210000      0.00267549      0.03168270     -0.06469980       1
O              15.49410000      0.20922900     11.02470000      0.01432750      0.06093110     -0.00227613       8
H              14.43570000      0.40279100     12.47680000     -0.01183760     -0.01038540     -0.00048276       1
H              15.75550000     -1.35783000     10.31410000     -0.00273389     -0.04934380     -0.00010888       1
O             -33.21340000     -2.79046000     44.98660000      0.00628073     -0.03452850     -0.01899740       8
H             -33.43550000     -3.22014000     43.18410000     -0.00006547      0.00687973      0.01996900       1
H             -32.30770000     -4.31473000     45.68690000     -0.00794777      0.02293000     -0.00029009       1
O               8.38879000    -11.46270000     -8.86945000      0.05205550      0.02163670     -0.00615594       8
H               9.53458000    -10.70490000     -7.35169000     -0.03075680     -0.02290900     -0.05672030       1
H               9.30308000    -11.52450000    -10.65050000     -0.01939440      0.00881938      0.06906360       1
O              22.85800000     17.26120000     14.92520000      0.00278378      0.00292185     -0.00853217       8
H              21.54060000     18.47470000     15.66050000      0.03088470     -0.00884086     -0.03453190       1
H              23.63530000     17.63380000     13.19190000     -0.02655790      0.00834215      0.03525240       1
O               9.22387000     21.43070000     -9.27083000     -0.02158760     -0.00948551      0.01728770       8
H               7.89275000     21.05030000     -7.91390000      0.01759930      0.00742874     -0.03517010       1
H               8.47171000     21.18720000    -10.97800000     -0.00248139      0.00168186      0.01873960       1
O              21.03330000     51.35530000     30.50450000     -0.09258230     -0.01095470     -0.06056370       8
H              22.14870000     52.09470000     31.59040000      0.03246890      0.03565710      0.03347760       1
H              19.33630000     52.32340000     30.14370000      0.05718020     -0.02169260      0.02553260       1
O              -6.59681000      7.70155000      2.97699000     -0.06868610     -0.01681090      0.04242460       8
H              -7.78732000      9.07932000      2.00443000      0.02917020     -0.03213320      0.02729330       1
H              -7.71174000      6.75407000      4.46354000      0.04602340      0.04345070     -0.06603420       1
O              13.77050000    -29.71350000     15.45810000      0.00660000      0.05364130     -0.01660130       8
H              12.02730000    -29.23750000     15.37400000     -0.01499740      0.02468900     -0.00078564       1
H              13.57150000    -31.40840000     15.78550000      0.01247170     -0.06753920      0.01521040       1
O               2.46361000     16.68370000     43.16930000      0.00194449     -0.00686888     -0.07085560       8
H               3.16924000     14.93040000     43.63290000     -0.02438110      0.03252860     -0.02236900       1
H               2.02373000     16.90190000     41.07160000      0.01999170     -0.02314650      0.09066150       1
O              42.45250000     42.24850000     -0.98250400     -0.03269810     -0.03858730      0.07180040       8
H              43.82690000     43.16960000     -0.19739200      0.01392270      0.00907403     -0.00160762       1
H              41.73270000     41.42050000      0.77970700      0.00842826      0.03460600     -0.06394330       1
O              21.65110000     11.06590000    -30.04960000     -0.00647020      0.00451490      0.00017742       8
H              21.25830000      9.23625000    -29.79470000      0.00368401      0.01930150     -0.01776440       1
H              20.78780000     11.72310000    -31.58940000      0.01439810     -0.02010030      0.01243940       1
O             -14.42710000     42.17180000      2.78378000      0.09689760      0.12336200     -0.01544920       8
H             -15.37620000     40.80600000      2.89137000     -0.07362100     -0.08208950      0.02585670       1
H             -14.00340000     43.32280000      4.25677000     -0.01939230     -0.04144930     -0.01685960       1
O              11.55310000    -28.13080000     31.12010000      0.01333950     -0.00268470      0.03575890       8
H              12.71880000    -28.49360000     32.59980000     -0.01512070      0.00971846     -0.03637250       1
H              11.49460000    -26.34780000     30.75030000      0.00996023      0.00389414      0.00084149       1
O               2.73892000     35.01600000      0.65381800     -0.06559060     -0.01947400     -0.00246860       8
H               0.94421300     34.90920000      1.27308000      0.03581760      0.01078900      0.00848275       1
H               2.24590000     34.59900000     -1.07368000      0.02352980      0.01009630     -0.00750080       1
O             -11.23190000    -14.28690000     13.83320000     -0.07672420      0.06925430     -0.00955750       8
H             -10.21510000    -15.51490000     13.18590000      0.04627560     -0.04278750     -0.02878250       1
H             -12.08050000    -13.30340000     12.31940000      0.02730740     -0.02763590      0.03809840       1
O              -6.56387000      4.00761000     14.95480000     -0.01119020      0.00314742     -0.01814410       8
H              -5.15003000      5.04239000     15.72580000     -0.00737884     -0.03201210     -0.00824660       1
H              -6.16263000      2.48639000     13.91110000      0.02027050      0.02724090      0.02755410       1
O              26.80270000    -12.76360000     -4.58954000     -0.04584480      0.04048770      0.03288790       8
H              24.99630000    -12.59600000     -5.15368000      0.02124900     -0.01152470     -0.00039092       1
H              27.66870000    -13.82290000     -5.65011000      0.01622620     -0.03223390     -0.03687050       1
O              20.88150000      6.03048000     42.51970000      0.02009970     -0.02323970      0.08688780       8
H              19.79360000      5.97359000     44.27100000      0.03784660     -0.00958369     -0.05481080       1
H              22.67070000      5.16086000     43.12140000     -0.05426200      0.02779690     -0.02349170       1
O              13.82320000     25.80340000     47.03700000     -0.06988530     -0.08095640     -0.01108290       8
H              15.11560000     26.84910000     47.06270000      0.08726550      0.08142480      0.01053730       1
H              14.67970000     24.28710000     46.30560000     -0.01869320      0.00670078      0.00573875       1
O             -16.02340000      9.96649000     22.14290000     -0.13350800      0.03880340      0.03938280       8
H             -14.51900000      9.31667000     22.07510000      0.12386600     -0.04974880     -0.00824857       1
H             -16.70420000      9.38360000     23.82500000      0.00805992      0.01472990     -0.03014980       1
