192
TotEnergy=-1103.28502000 cutoff=-1.00000000 nneightol=1.20000000 pbc="T T T" Lattice="24.49594000       0.00000000       0.00000000      -0.00000100      24.49594000       0.00000000      -0.00000100      -0.00000100      24.49594000" Properties=species:S:1:pos:R:3:force:R:3:Z:I:1
O              25.05270000     -1.31123000    -35.60830000     -0.07779890      0.04571750      0.01236490       8
H              23.22000000     -1.91906000    -35.55870000      0.03240950      0.02342960      0.00073961       1
H              25.88210000     -2.79042000    -35.81240000      0.04601350     -0.06920370     -0.01721280       1
O              51.88450000     48.44120000     -0.89058400     -0.03236810      0.00335920      0.15846600       8
H              50.61380000     49.72680000     -0.50976100      0.00405322     -0.01221070      0.00215275       1
H              52.07070000     48.63820000     -2.47949000      0.02346370      0.00670000     -0.16366900       1
O              12.77970000      0.99854500     18.08700000      0.01264240      0.04323790      0.05903260       8
H              13.04640000      2.82246000     18.86030000     -0.01746070     -0.04891240     -0.01831020       1
H              13.30570000     -0.00799400     19.59480000     -0.00828463      0.00783360     -0.03510770       1
O              -2.38386000    -13.58920000     -1.58299000      0.01275300     -0.14874700      0.02140600       8
H              -1.16834000    -14.28290000     -2.74760000     -0.00350725     -0.00691927      0.00182481       1
H              -2.42577000    -11.99520000     -1.86385000      0.00546820      0.16062500     -0.02293680       1
O               6.40915000     36.25650000     17.19170000     -0.01457320      0.04668110      0.06857310       8
H               6.36494000     36.31020000     19.23470000      0.00983105     -0.02010020     -0.07336890       1
H               6.89927000     34.65180000     16.62770000      0.00614232     -0.03164570      0.00391134       1
O              -6.92593000     12.06320000      6.77129000      0.02075510     -0.05933880     -0.00880072       8
H              -7.64955000     13.61360000      6.47445000     -0.02238480      0.05364630     -0.00961612       1
H              -7.37415000     11.07810000      5.27118000      0.00173349      0.00436029      0.00973037       1
O              44.13100000     29.62420000     13.16980000      0.17524300      0.11190400     -0.05372990       8
H              46.12180000     29.01350000     12.96980000     -0.08398590      0.00923255      0.00035531       1
H              43.07400000     28.52470000     13.72040000     -0.09092570     -0.11859600      0.05234620       1
O               2.00047000    -37.00470000      9.05184000      0.01538820     -0.05158860     -0.04717170       8
H               2.83740000    -38.67450000      8.51695000     -0.02141520      0.03495100     -0.00108879       1
H               2.28776000    -37.01740000     10.80380000      0.00794141      0.01372300      0.02941620       1
O              34.74090000    -33.64360000     16.16350000      0.05185400     -0.04082440     -0.02301510       8
H              33.57020000    -35.00340000     16.57320000     -0.00466071     -0.00199382     -0.00334166       1
H              36.41710000    -34.58730000     15.71190000     -0.05329470      0.02446380      0.01064100       1
O              10.61670000    -27.91880000    -25.12970000      0.15927200      0.10831400     -0.13756600       8
H              12.56880000    -27.88610000    -24.63730000     -0.05478230     -0.01333020     -0.01555750       1
H               9.72163000    -28.61750000    -24.04380000     -0.11076700     -0.10050400      0.15161100       1
O             -12.84360000      6.08477000      8.40859000     -0.12639600     -0.12450200     -0.07795330       8
H             -12.05840000      7.16928000      9.30290000      0.07682220      0.11275400      0.09627450       1
H             -14.74000000      5.85515000      8.85274000      0.05413470      0.00894301      0.00114965       1
O             -10.03170000     28.35300000     50.12130000      0.02428230     -0.00883966     -0.01959010       8
H             -11.69190000     27.56050000     50.04550000      0.00554886     -0.01204120      0.00862305       1
H              -8.73379000     27.06520000     49.65020000     -0.02351940      0.01941930      0.02059510       1
O              10.98740000    -30.74040000    -17.99330000      0.07003450      0.02220220      0.02844960       8
H               9.92064000    -31.23640000    -19.26040000     -0.04907750     -0.02256910     -0.04728340       1
H              10.25490000    -30.61160000    -16.39540000     -0.01968620     -0.00199213      0.02336740       1
O              27.27710000     13.72860000     38.06680000     -0.01679810     -0.00180583      0.01912760       8
H              25.37650000     14.08910000     38.45310000      0.05220700     -0.03075290      0.00865537       1
H              28.29720000     12.49750000     39.16870000     -0.03410340      0.03890370     -0.01423620       1
O               2.88915000     -1.07123000      4.32655000      0.06049250      0.02176150      0.01270180       8
H               4.33097000     -0.42927400      5.56906000     -0.04637810     -0.03130580     -0.04636950       1
H               3.65940000     -1.29048000      2.58092000     -0.01216480      0.01346850      0.04283340       1
O             -34.55430000     25.94490000     33.36290000     -0.07408220      0.07175490     -0.00098283       8
H             -32.82270000     26.15480000     32.87390000      0.01614780      0.00285853      0.00378896       1
H             -35.59880000     27.75670000     33.10150000      0.04654570     -0.06226560      0.00629626       1
O             -31.80540000     11.10890000     23.07010000     -0.03435770     -0.03097430     -0.07030470       8
H             -32.15530000     10.26320000     21.25360000      0.00913953      0.03604510      0.07126550       1
H             -30.02620000     11.05480000     23.31620000      0.01973380     -0.01294460     -0.00695054       1
O             -21.19590000     64.08820000    -19.92990000     -0.01758700     -0.04187840     -0.05430960       8
H             -21.64000000     63.60480000    -18.32650000     -0.00647845      0.00648044      0.07335730       1
H             -21.80590000     62.33330000    -20.54430000      0.02890460      0.04196930     -0.01829990       1
O              68.74590000     21.72710000     38.38220000     -0.06722240     -0.00000914      0.09668020       8
H              66.93450000     22.68650000     38.51950000      0.06916670     -0.02470510     -0.00998973       1
H              68.81420000     20.93170000     40.33830000      0.00040082      0.02424650     -0.08263670       1
O              59.34850000    -11.33740000      0.88797300     -0.07120860     -0.01140530     -0.06311650       8
H              58.52080000    -12.49900000     -0.49229700      0.03187690      0.02397120      0.04260400       1
H              60.87440000    -11.96880000      1.40171000      0.04394970     -0.02970820      0.01238820       1
O              28.10100000     18.92340000    -12.35840000     -0.04637790     -0.06608870      0.01885280       8
H              29.74580000     19.47550000    -12.82840000      0.01112410     -0.02398350      0.00588006       1
H              27.88850000     16.85670000    -11.95240000      0.02551680      0.07761050     -0.01497440       1
O             -17.73570000      6.30342000     65.08830000      0.03412090      0.06554600     -0.09921570       8
H             -16.08080000      6.10132000     64.22030000     -0.02873210      0.00488757      0.01512270       1
H             -17.75120000      5.09087000     66.24900000     -0.00289685     -0.06732730      0.07653200       1
O              10.10130000      1.35029000      1.68666000      0.00923468      0.00197730     -0.16508800       8
H               9.76807000      1.15479000      3.29889000     -0.02182000     -0.03917360      0.10921600       1
H               9.70134000     -0.14489800      0.43395600      0.01436460      0.03400210      0.05285480       1
O              43.74070000      0.91679000     34.02930000      0.02222820     -0.00064655     -0.02333330       8
H              44.86370000      2.23524000     34.90040000     -0.02319780     -0.04769080     -0.04157080       1
H              44.39170000     -0.09978200     32.41650000      0.00637895      0.04332770      0.05371670       1
O              -2.63217000     63.00490000     34.28280000     -0.14910700      0.06698960      0.02844260       8
H              -3.75057000     62.13250000     33.15940000     -0.01642370      0.00098068     -0.00276803       1
H              -1.22418000     62.35030000     33.85750000      0.15884400     -0.06504960     -0.03618620       1
O               8.03250000     36.61340000     11.67300000      0.00830392     -0.03243080     -0.03489220       8
H               8.22045000     36.06430000      9.81075000     -0.01432400      0.02546920      0.03270550       1
H               7.97614000     38.41220000     11.78630000      0.00022938      0.00262666     -0.00525021       1
O             -14.45350000     19.18420000     18.68530000     -0.04038290      0.02426500      0.07541630       8
H             -14.50960000     17.50960000     17.88940000     -0.00100386     -0.00704192      0.00462119       1
H             -15.39330000     19.19590000     20.50410000      0.04440630     -0.00170142     -0.07107040       1
O              28.15140000     34.90040000     51.00050000     -0.01216270      0.00591215     -0.02187710       8
H              28.71600000     34.06960000     52.55660000     -0.01156520     -0.01072180     -0.01147770       1
H              26.60440000     34.16820000     50.21710000      0.02506220     -0.00224512      0.02990780       1
O               6.85562000     28.87390000     20.80210000      0.11571000      0.12317100     -0.01028270       8
H               8.78205000     28.65710000     21.20490000     -0.05238560      0.01572520     -0.01353580       1
H               6.36861000     27.35450000     21.07320000     -0.05835510     -0.14298200      0.02677510       1
O               3.56633000    -24.51430000     17.63920000     -0.01997620      0.03377940      0.05075990       8
H               2.63535000    -25.13950000     16.31590000     -0.06906060     -0.01067960     -0.03875160       1
H               4.95384000    -25.24080000     16.94600000      0.08693690     -0.01729840     -0.00741517       1
O               1.19893000     18.82080000      0.81901600     -0.00913523      0.05511160     -0.03141080       8
H               1.91708000     17.90040000      2.13526000      0.01521130     -0.01285360      0.02879940       1
H               1.75091000     20.64640000      0.86494500     -0.01255440     -0.04729790     -0.00150649       1
O              -0.49730900      3.38556000     10.95580000      0.07059770     -0.09846170      0.19574800       8
H              -0.79232900      3.89669000      9.49597000     -0.03373600      0.06858390     -0.19641900       1
H               0.67092500      1.84111000     10.82890000     -0.03763830      0.03675970      0.01141050       1
O             -36.44940000     54.26680000    -27.85780000     -0.05427650      0.03428430     -0.09785230       8
H             -35.53090000     55.58180000    -28.78680000     -0.00715215      0.00000966      0.00439516       1
H             -35.47290000     53.78640000    -26.58200000      0.05953000     -0.02447390      0.08624510       1
O               9.13307000     55.20070000    -20.19450000     -0.01089790     -0.03772720     -0.05659310       8
H              10.51090000     55.31260000    -19.07340000      0.02225660     -0.00473801      0.00718686       1
H               9.59949000     53.85300000    -21.50410000     -0.01448150      0.03882930      0.03476350       1
O             -41.04500000     41.31260000      2.72492000     -0.07927950      0.04926120      0.07282740       8
H             -40.59980000     39.96110000      1.65538000      0.00150971     -0.02740770     -0.00745321       1
H             -42.91190000     41.13870000      3.79000000      0.07173920     -0.01244250     -0.05667230       1
O              14.80460000     33.79610000     18.21580000      0.02549440      0.00721681     -0.02195840       8
H              16.63310000     34.10240000     17.78300000     -0.02450550     -0.01490410      0.00450231       1
H              13.98760000     34.11220000     16.55370000     -0.00128321      0.00166920      0.01722670       1
O             -16.65440000    -13.41660000      6.37154000     -0.04273710      0.12595600     -0.01386950       8
H             -16.49110000    -11.72440000      5.13348000      0.00298872     -0.08253460      0.04857600       1
H             -15.53470000    -14.65830000      6.00660000      0.04353440     -0.03848970     -0.03476250       1
O             -49.19180000      4.00135000     17.34410000      0.04143150     -0.01872750      0.05836220       8
H             -47.61410000      2.97078000     17.77570000     -0.03860600      0.01665170     -0.02251090       1
H             -49.41310000      4.09396000     15.61420000      0.00472466     -0.00937915     -0.03890410       1
O             -20.76550000    -17.04930000     31.15440000      0.01326890     -0.04449190      0.03198820       8
H             -19.46690000    -18.05010000     32.18820000     -0.02864820      0.03160620     -0.02543440       1
H             -22.14700000    -18.33390000     31.12110000      0.01167430      0.01827630     -0.00513734       1
O              17.58250000     15.70360000     25.15980000     -0.03178430      0.02690090      0.05267190       8
H              16.49230000     15.84620000     26.75220000      0.03510590      0.00450794     -0.03096540       1
H              17.15520000     14.10990000     24.50590000     -0.01234500     -0.02607120     -0.01804470       1
O             -18.52070000     -0.66214900     33.71300000     -0.00928212      0.03244180     -0.02025290       8
H             -16.81260000     -0.99591900     33.35650000      0.04871090      0.02501600     -0.05442420       1
H             -18.19050000     -1.86362000     34.89920000     -0.03457140     -0.04824920      0.06866020       1
O              40.34710000      8.97075000     34.80790000     -0.11560300     -0.08660260      0.16033900       8
H              41.42890000      8.15069000     35.91730000      0.03505380     -0.01263870      0.00395198       1
H              40.80010000      9.73157000     33.50070000      0.08146040      0.09494970     -0.15780700       1
O              -4.44404000    -31.43510000     -6.15457000      0.05007650     -0.06441930     -0.04445540       8
H              -3.25815000    -31.74240000     -4.64785000     -0.02433570      0.00700588     -0.02128740       1
H              -3.67688000    -32.91910000     -7.53520000     -0.03270200      0.06537270      0.05607320       1
O              55.41860000    -19.84290000    -14.04820000      0.00365134     -0.01381400      0.01189460       8
H              54.92860000    -19.91150000    -12.28430000     -0.00002347      0.01477470     -0.00403844       1
H              55.35600000    -21.63690000    -14.41950000      0.00074357     -0.00303906     -0.00977689       1
O               8.56249000     -1.53431000     15.55230000      0.03239100      0.00074377      0.01993170       8
H              10.13500000     -0.48275700     15.90320000     -0.03359420     -0.02434130      0.00109191       1
H               8.78244000     -3.07367000     16.68530000      0.00348584      0.02766100     -0.00022899       1
O             -33.26930000     -3.95053000     48.17510000      0.01340140     -0.03301210     -0.01758650       8
H             -33.29910000     -4.36992000     46.28630000     -0.01612810      0.04173000      0.01457270       1
H             -32.54310000     -5.63592000     48.44180000     -0.00244683      0.00739727      0.03009280       1
O              12.51440000    -13.48710000    -10.71300000     -0.02935180     -0.01207400     -0.03186530       8
H              10.73640000    -13.67880000    -11.58750000      0.03966240      0.01903320      0.02677420       1
H              13.68320000    -13.73350000    -12.14370000     -0.00432914     -0.00117139      0.01263330       1
O              19.79610000     18.83060000      9.38030000     -0.01267810     -0.00306896     -0.04579560       8
H              19.54160000     20.02110000     10.69240000      0.01154860      0.00274256      0.02807020       1
H              21.06560000     17.53820000      9.52109000      0.00253654     -0.00005663      0.01737720       1
O              15.05700000     20.54200000     -5.47550000      0.03917650     -0.02868660     -0.01226300       8
H              13.43470000     19.71920000     -5.59975000     -0.01122970     -0.00238799     -0.00273444       1
H              16.40920000     19.24310000     -5.79035000     -0.02158380      0.02051430     -0.00528543       1
O              21.59700000     46.92350000     30.42070000     -0.05117280     -0.02478510      0.01265620       8
H              20.99980000     45.38130000     31.50560000      0.03061070      0.03107050     -0.02248990       1
H              23.34130000     47.28320000     30.22620000      0.01344090     -0.01381820      0.00570565       1
O              -9.96045000      9.52718000      2.47457000      0.02930890      0.05272140     -0.00312602       8
H              -8.85680000      9.83260000      0.97892200     -0.01513120     -0.00640168      0.01288320       1
H             -10.58180000      7.91148000      2.34029000     -0.01376470     -0.04605750     -0.00404702       1
O              15.73760000    -23.09620000     14.01020000      0.01440240      0.00930242      0.04733340       8
H              14.78140000    -22.94320000     12.59090000     -0.01297940     -0.00469715     -0.08334110       1
H              14.35740000    -22.58930000     15.07170000      0.01212780     -0.01078430      0.03068730       1
O              -2.31653000     13.48260000     39.15810000      0.01750960     -0.01162580      0.07412940       8
H              -3.27198000     12.17020000     40.04530000      0.00895429     -0.00027715     -0.00706709       1
H              -3.24904000     13.94700000     37.78630000     -0.02892670      0.01197410     -0.05688440       1
O              46.51640000     40.72400000     -1.80985000     -0.02830890      0.01636450      0.03079750       8
H              47.25420000     41.99820000     -0.60399800      0.00308069     -0.02177670     -0.01982920       1
H              44.71830000     40.56950000     -1.14582000      0.03728590      0.00630749     -0.00817234       1
O              25.21320000      8.57043000    -30.47700000     -0.02618950      0.02874100      0.02358490       8
H              26.15060000     10.13820000    -30.51010000      0.01260960     -0.02741890     -0.01544930       1
H              25.65300000      6.88856000    -31.09580000      0.00975742      0.01225180     -0.00155631       1
O             -13.72520000     48.16710000      6.49234000      0.01492740      0.02354210      0.03423490       8
H             -12.33050000     48.99460000      7.62292000     -0.01994520     -0.01930260     -0.03094160       1
H             -13.22230000     46.43830000      6.37730000      0.00140273     -0.00977597     -0.00460021       1
O               8.66104000    -29.75430000     36.79110000      0.00275742      0.06572130     -0.01346470       8
H               9.28160000    -30.79270000     37.98970000      0.02368070     -0.08860530      0.03675910       1
H               9.00980000    -28.41840000     38.13540000     -0.01744200      0.02011660     -0.04294690       1
O               0.01812700     28.29200000      5.79113000      0.02552540     -0.04490690      0.02008810       8
H               0.99910000     26.58990000      5.70915000     -0.03118210      0.05527620     -0.01918770       1
H              -0.27398400     29.15070000      4.19549000      0.00442956     -0.00870010     -0.00541462       1
O              -8.35883000     -7.36978000      5.89024000     -0.04265020     -0.01426370     -0.01053400       8
H             -10.22000000     -7.24879000      6.27245000      0.02747980      0.00499640     -0.00482373       1
H              -7.47098000     -7.12089000      7.43155000      0.01093050      0.01171600      0.01214060       1
O              -4.59598000      8.97303000     17.00800000      0.04601500     -0.03479590     -0.00910568       8
H              -3.02484000      8.72824000     18.07430000     -0.02727730      0.00795881     -0.01820320       1
H              -4.30046000      7.54930000     15.69770000     -0.01870230      0.03139240      0.02398320       1
O              23.83680000    -17.67300000      1.50185000     -0.00836707      0.01764520      0.01121060       8
H              23.81810000    -19.03510000      0.25698200     -0.02167950      0.01373890     -0.00114619       1
H              22.37210000    -16.47470000      1.48221000      0.02721350     -0.03513780     -0.01327840       1
O              22.35410000      2.48949000     47.65970000     -0.04187940     -0.02079460      0.06666200       8
H              20.78380000      1.77982000     48.77490000      0.05191280      0.01425960     -0.02838040       1
H              21.65290000      2.41314000     46.05020000     -0.00536716      0.00138340     -0.03568780       1
O              18.50970000     24.46170000     50.50110000      0.01051600     -0.06040040      0.04179640       8
H              19.38110000     23.37290000     51.99430000     -0.02330170      0.04468750     -0.04727260       1
H              17.33140000     23.13000000     49.80130000      0.02181980      0.01853040      0.00215601       1
O             -16.92760000      9.99002000     22.06980000     -0.06773020     -0.02762810      0.03426090       8
H             -16.65490000      8.17084000     21.55890000     -0.00972533      0.03914060      0.01412350       1
H             -18.65920000      9.95195000     23.25500000      0.07090770     -0.00272754     -0.03619160       1
