192
TotEnergy=-1103.46273000 cutoff=-1.00000000 nneightol=1.20000000 pbc="T T T" Lattice="23.90357000       0.00000000       0.00000000      -0.00000100      23.90357000       0.00000000      -0.00000100      -0.00000100      23.90357000" Properties=species:S:1:pos:R:3:force:R:3:Z:I:1
O              24.47170000     -2.70583000    -26.25060000     -0.08136420      0.02038480     -0.05642060       8
H              22.73970000     -2.68501000    -27.48630000      0.06930050     -0.00521097      0.05555720       1
H              24.79110000     -4.44761000    -25.95750000      0.00530643     -0.02080750      0.00636069       1
O              48.03950000     46.63750000      3.05391000      0.03824450     -0.02751110     -0.00823192       8
H              49.76480000     47.02890000      3.82914000     -0.03520750     -0.01636570     -0.02799310       1
H              48.23210000     45.36170000      1.56897000      0.00341063      0.04380630      0.04139670       1
O               9.98147000      2.66416000     10.34730000      0.04237920      0.02779160      0.02791960       8
H              11.13330000      4.54677000     10.95170000     -0.06125810     -0.07837210     -0.01418280       1
H              10.11730000      0.97423700     11.37650000      0.00906793      0.04191130     -0.01000430       1
O              -6.32462000     -9.42915000     -0.09867200      0.03217710      0.00126005     -0.02944360       8
H              -4.86708000     -9.55059000     -1.41031000     -0.03471720      0.00381290      0.02871330       1
H              -6.80516000     -7.69474000      0.21375400      0.00208994     -0.00298809     -0.00294273       1
O               7.71993000     30.11100000     16.88910000     -0.04569800      0.01504170      0.02932560       8
H               7.82054000     31.54130000     18.10460000      0.00767807     -0.01178680     -0.01511720       1
H               9.27346000     29.81510000     16.12990000      0.03708850      0.00022950     -0.01373570       1
O              -6.56498000     11.82730000      8.68217000     -0.03659980     -0.09818000      0.07376450       8
H              -6.60956000      9.71036000      8.67517000     -0.01363170      0.07376560     -0.00667145       1
H              -5.69804000     12.30380000      7.30189000      0.04820820      0.01782650     -0.07462420       1
O              44.24630000     23.93050000     12.80460000     -0.06114270     -0.02354830     -0.02974140       8
H              45.96730000     23.47150000     12.73130000      0.02096640     -0.00171986     -0.01073850       1
H              43.20090000     22.99420000     11.32660000      0.04777400      0.02932350      0.04187400       1
O               2.37131000    -29.50590000     11.59740000     -0.04020650      0.02879300     -0.05569430       8
H               1.93515000    -31.21990000     11.95480000     -0.00023633     -0.02026220      0.00190547       1
H               1.18703000    -29.12150000     10.00880000      0.03369940     -0.00728159      0.05072500       1
O              30.07910000    -33.32000000     22.41060000      0.07609950      0.00583747     -0.08380070       8
H              31.41010000    -31.89990000     21.60740000     -0.04784750     -0.03276800      0.04242950       1
H              30.57250000    -34.64600000     21.04620000     -0.02291950      0.02739910      0.04490760       1
O               8.95541000    -29.05500000    -26.13840000      0.05091190      0.02021110      0.05371610       8
H              10.95630000    -29.07860000    -26.05090000     -0.05903920      0.00236036     -0.00990499       1
H               8.42967000    -28.30520000    -24.37810000      0.00636768     -0.02105440     -0.04893520       1
O             -10.42390000      0.36827600      6.67741000      0.09183940     -0.12349500     -0.13616200       8
H             -11.09910000      1.31350000      7.78555000     -0.07927640      0.11790600      0.10036500       1
H             -10.50220000      0.58111900      4.76123000     -0.00110932      0.01649160      0.03975400       1
O             -10.48610000     25.33000000     49.51660000     -0.05384460      0.01467290     -0.02694380       8
H             -12.43040000     25.94550000     49.03980000      0.05797660     -0.00901478      0.01659290       1
H              -9.60185000     25.30150000     47.85970000     -0.00994993     -0.00159171      0.00922177       1
O              14.36400000    -28.99530000    -12.03520000      0.05376530     -0.00025108      0.05099520       8
H              14.25390000    -30.11470000    -13.35800000     -0.00706087     -0.04171120     -0.04419780       1
H              13.19950000    -27.73240000    -12.30750000     -0.04167910      0.03906600      0.00173224       1
O              24.98110000     13.21210000     36.50000000      0.02124040     -0.01540990     -0.00055474       8
H              25.08440000     12.27670000     34.86590000      0.00598622      0.01433980      0.03240990       1
H              26.65490000     12.90580000     37.80630000     -0.02685420      0.00323110     -0.02921810       1
O              -1.20496000      3.50045000      1.62098000      0.06572710      0.00165249     -0.02357580       8
H              -0.92152300      1.84380000      2.38756000     -0.00567465     -0.00125294     -0.00091503       1
H               0.59819600      3.65667000      0.70788900     -0.06720160      0.00032149      0.02430040       1
O             -25.38960000     19.24160000     31.52260000     -0.00802103      0.00097772      0.01625470       8
H             -24.89560000     20.40910000     30.21940000     -0.00603768      0.00411660     -0.00129224       1
H             -27.03680000     19.82820000     32.23330000      0.02593040     -0.00336866     -0.02136770       1
O             -33.53810000     10.71860000     25.09080000      0.00079921      0.00563811      0.04219710       8
H             -34.14430000     10.02210000     23.57910000      0.00026867      0.00039481     -0.02843940       1
H             -32.42990000     12.18280000     24.90820000      0.00206310     -0.00964616     -0.02035920       1
O             -17.14210000     62.56870000    -20.05930000      0.03337640      0.00910844     -0.06938770       8
H             -18.24010000     61.76140000    -19.01610000     -0.04035520     -0.02863170      0.03962150       1
H             -17.33680000     61.61720000    -21.69650000      0.00310846      0.02270950      0.02463130       1
O              68.16470000     20.58870000     41.66640000      0.00180323      0.04805140     -0.04190010       8
H              68.51290000     22.11200000     40.41810000     -0.02264810     -0.05098680      0.03425980       1
H              66.45890000     19.84410000     41.31010000      0.01698240      0.00971071      0.00306112       1
O              56.63450000    -20.07180000      1.28870000     -0.02299590     -0.03436730     -0.00251818       8
H              55.75650000    -20.82310000      2.82709000      0.00062578      0.01506820     -0.02321650       1
H              55.74780000    -20.86240000     -0.23207500      0.02184590      0.01840050      0.02363180       1
O              31.38790000     19.01480000    -12.79940000      0.13268500     -0.10463100     -0.03506130       8
H              31.72230000     16.90420000    -12.91180000     -0.00867215      0.07832850     -0.00351729       1
H              29.77610000     19.17600000    -12.51120000     -0.13205800      0.00719832      0.02145090       1
O             -13.27240000      7.47692000     58.96010000     -0.00265640      0.00671768     -0.00287172       8
H             -14.31940000      8.17756000     57.61160000     -0.00245780     -0.00431081      0.00351929       1
H             -11.62960000      7.60988000     58.23470000      0.02135020      0.00862922     -0.00570059       1
O               7.80822000      2.30019000     -3.64140000      0.02628500     -0.01082360     -0.01294640       8
H               8.79282000      0.83519200     -4.35943000     -0.02576980      0.02343360      0.01016260       1
H               8.22355000      3.74582000     -4.77577000     -0.01370510     -0.01274220      0.00914092       1
O              42.28560000      5.00428000     22.60450000     -0.02394210      0.03972010      0.03279490       8
H              41.46630000      6.34902000     23.72680000      0.01089420     -0.02799470     -0.03609090       1
H              43.11220000      4.11340000     23.94630000      0.01977880     -0.00891418     -0.00257209       1
O              -4.26003000     60.23930000     28.04940000      0.12053700     -0.04524760      0.14301200       8
H              -4.75198000     60.89560000     26.68510000     -0.08364400      0.06875760     -0.16187400       1
H              -2.51171000     61.17010000     27.98230000     -0.03332750     -0.02599190      0.02759420       1
O               9.02433000     37.61190000      9.87447000     -0.00365840     -0.00053954     -0.02440600       8
H               8.42882000     36.79290000      8.26368000     -0.00068578      0.00525432      0.02939970       1
H              10.81040000     37.86650000      9.39843000      0.00023724      0.00789961      0.00895827       1
O             -15.61230000     21.73540000     17.41000000      0.13916300     -0.01565030      0.04368990       8
H             -17.26690000     21.79740000     17.26320000     -0.11237800     -0.00461258     -0.00432909       1
H             -15.07920000     20.72120000     18.97160000     -0.02380450      0.01544730     -0.03253310       1
O              32.22230000     33.25890000     49.29420000     -0.04047420     -0.05597400      0.01636420       8
H              31.94870000     31.31790000     49.37830000      0.02190210      0.04330770     -0.00807561       1
H              30.32590000     33.70620000     49.32550000      0.02643550      0.00259581     -0.00458174       1
O              14.18670000     32.68180000     20.12070000      0.03818620      0.10621900      0.01346990       8
H              14.98850000     34.21460000     19.03820000     -0.01860280     -0.02991960      0.04973980       1
H              14.02880000     31.84780000     18.65460000     -0.01718690     -0.07615250     -0.06373360       1
O               2.34860000    -21.47680000     21.35810000      0.11527800      0.10755500     -0.01387890       8
H               1.46310000    -22.84900000     21.66530000     -0.04477570     -0.10042900      0.01755040       1
H               4.31295000    -21.74360000     21.39550000     -0.06281410     -0.00488808     -0.00678192       1
O               0.50813300     14.35710000      4.54066000     -0.03356800     -0.14205700     -0.04581780       8
H               0.71005700     14.79000000      2.84323000      0.00985839     -0.00339543     -0.04597590       1
H               0.82687100     15.79860000      5.16776000      0.02622630      0.15027400      0.08691440       1
O               2.02018000      1.11006000     13.48570000      0.01228760     -0.13836300     -0.03935680       8
H               2.66911000     -0.01331700     14.81460000     -0.00866040      0.01412790     -0.00157488       1
H               1.91756000      2.69099000     13.89200000     -0.00855585      0.12353900      0.04739470       1
O             -34.82420000     52.68670000    -31.07230000      0.00468115      0.08160360     -0.07581580       8
H             -33.77130000     52.52740000    -32.61970000     -0.01029630     -0.00030781      0.02742900       1
H             -34.74920000     51.22280000    -30.24340000      0.01071420     -0.07919550      0.04602690       1
O               5.75356000     49.59270000    -18.94090000      0.00793563      0.01477590      0.04043670       8
H               5.19866000     50.47930000    -17.29980000      0.01418780     -0.01725200     -0.03366750       1
H               7.23279000     48.58680000    -18.29120000     -0.02944790      0.00282272     -0.00132763       1
O             -35.71190000     38.22760000      3.61310000     -0.01054880     -0.06465530     -0.02493180       8
H             -35.28550000     36.34260000      2.72897000     -0.00080572      0.06046730      0.02119750       1
H             -37.49760000     37.88970000      3.94841000      0.00434136      0.01543980     -0.00006477       1
O              19.62720000     34.41100000     13.00270000     -0.06120100     -0.04555420      0.01558340       8
H              21.15250000     35.12030000     13.18940000      0.08183560      0.03305510      0.01758680       1
H              19.03670000     35.18450000     11.51020000     -0.01743000      0.01105750     -0.02758820       1
O             -16.27790000    -13.78430000      6.73818000      0.03966490     -0.01315330     -0.03756110       8
H             -15.91340000    -14.38750000      4.94288000     -0.00594607      0.01786520      0.03299970       1
H             -17.93310000    -14.31670000      7.16088000     -0.02775300     -0.00153345      0.00001419       1
O             -45.92330000      6.29127000     17.52240000      0.01816360      0.00531065     -0.01684510       8
H             -45.61810000      5.46477000     19.15200000      0.00625250     -0.01092880     -0.01930260       1
H             -44.37880000      6.33389000     16.40550000     -0.02482130     -0.00569033      0.03434750       1
O             -21.00770000    -15.11540000     31.91400000     -0.00426655     -0.04230260     -0.02672020       8
H             -19.98410000    -16.56770000     32.50430000     -0.01997450      0.00966062      0.00378118       1
H             -22.01340000    -15.89330000     30.45990000      0.01588070      0.02621000      0.03163010       1
O              13.55340000     15.03920000     32.31980000      0.04006640     -0.01288300      0.03192360       8
H              15.13010000     13.94530000     32.25060000     -0.02708540      0.00841387      0.01336710       1
H              13.10460000     15.02020000     30.60770000     -0.01360800      0.00427751     -0.04273330       1
O             -20.92220000     -3.11084000     40.41890000     -0.05297670     -0.00914695      0.09332970       8
H             -22.26250000     -4.17360000     41.62890000      0.06326050      0.04454060     -0.05474500       1
H             -20.87390000     -3.97498000     38.91500000     -0.00391737     -0.03371390     -0.04666280       1
O              39.55010000      6.82786000     32.54200000      0.01495050     -0.00898667     -0.00634721       8
H              39.61050000      6.39582000     30.65890000      0.00389751     -0.00152560      0.03208650       1
H              40.54550000      5.68009000     33.66000000     -0.01437940      0.01298380     -0.02045450       1
O              -7.90064000    -35.41370000     -7.61167000     -0.03034050     -0.02907340     -0.02999660       8
H              -6.63882000    -36.52690000     -8.53128000     -0.01141980      0.02261970      0.00970979       1
H              -9.53776000    -35.67900000     -8.58052000      0.03667590      0.00844915      0.02146860       1
O              52.78700000    -19.99020000    -13.89700000      0.00642162     -0.05682240      0.05247460       8
H              54.57140000    -20.27400000    -13.24200000     -0.01086520      0.01225970     -0.02569300       1
H              52.05450000    -21.46700000    -12.76120000      0.00447406      0.04494630     -0.03902280       1
O              17.90130000     -2.48431000      8.76859000     -0.02239480      0.06570500     -0.01455920       8
H              16.71570000     -0.95234200      8.26240000      0.02867940     -0.05464140      0.00902740       1
H              17.20500000     -3.19696000     10.26350000     -0.02421980     -0.01465060      0.00791932       1
O             -33.66730000     -3.83784000     44.39770000     -0.00423600     -0.00718321     -0.01387630       8
H             -32.97860000     -5.22958000     43.19090000     -0.01531460      0.02911460      0.03240190       1
H             -33.63580000     -4.09379000     46.20140000      0.01335570     -0.01652610     -0.00540899       1
O               4.53822000    -10.85280000     -8.08367000     -0.02671250     -0.00488800      0.02710300       8
H               3.81962000    -11.68590000     -6.46862000      0.02578970      0.01271830     -0.03053280       1
H               6.33301000    -11.12010000     -8.38323000     -0.00262292     -0.01398490      0.00584374       1
O              22.95440000     16.47400000     16.97710000      0.00284807      0.02368500     -0.08510460       8
H              21.98180000     18.30250000     16.82870000      0.02460440     -0.05883780      0.00421522       1
H              23.52750000     15.80520000     15.05050000     -0.02653000      0.02837070      0.08103520       1
O              10.52190000     22.09990000    -11.08700000     -0.00094403     -0.00315824      0.05306460       8
H              10.40900000     21.97350000     -9.10200000     -0.00398910      0.00691581     -0.05861120       1
H               9.20072000     20.81430000    -11.60830000      0.01316150      0.01058040      0.00437628       1
O              23.41460000     56.15000000     27.65520000     -0.04327360     -0.04693630      0.00285276       8
H              21.92580000     57.23250000     27.71210000      0.00861710      0.00884403      0.00318541       1
H              22.49410000     54.41720000     27.56440000      0.03831220      0.03695610     -0.00772236       1
O              -8.40524000      6.21142000      3.50050000      0.07608170     -0.09397420      0.02170300       8
H              -9.56927000      7.35749000      3.27005000     -0.07982500      0.09477770     -0.02112240       1
H              -9.21418000      4.65127000      2.97578000      0.00370953     -0.00568771      0.00121408       1
O              15.96730000    -30.07680000     16.94040000      0.00936867     -0.02923690     -0.03311140       8
H              15.45880000    -29.81100000     15.16880000     -0.00679910      0.01249060      0.00563565       1
H              16.12770000    -31.93160000     16.87570000      0.00575460      0.00559014      0.00835850       1
O               1.62832000     16.23770000     47.23460000     -0.08393850      0.02230750      0.00428992       8
H               3.26738000     15.74880000     47.11430000      0.07444900     -0.02221280     -0.01016710       1
H               0.76159400     15.25950000     45.96330000      0.00022940      0.00077147      0.00632517       1
O              38.16370000     42.63280000      1.72838000      0.05588060      0.10901700     -0.02567850       8
H              38.10910000     44.68920000      1.90666000     -0.01624410     -0.09176690      0.00707109       1
H              36.86040000     41.56190000      2.22124000     -0.03847450     -0.01372320      0.02383640       1
O              21.56270000     13.24830000    -27.31010000     -0.01798890     -0.06254160     -0.02741750       8
H              20.93610000     11.51160000    -28.16540000      0.01508760      0.05146070      0.02956680       1
H              21.97890000     14.32870000    -28.76710000     -0.00464228      0.00671809     -0.00393271       1
O             -17.77400000     43.80330000      2.59655000      0.00360226      0.08574520     -0.01848530       8
H             -17.79090000     42.07700000      2.57466000      0.01324040     -0.05709070      0.02058040       1
H             -16.53400000     44.69470000      3.65818000     -0.01342420     -0.02847120     -0.00047694       1
O               8.84672000    -25.57660000     30.69240000     -0.00775922      0.05396310     -0.11938900       8
H               8.30606000    -26.52810000     31.92390000     -0.02753730     -0.06948620      0.09872970       1
H              10.44300000    -24.84640000     30.75370000      0.03946870      0.00119963      0.01817280       1
O               3.61934000     34.53480000      1.42609000      0.03298150      0.00047541      0.08740170       8
H               2.26167000     33.74720000      2.30579000     -0.01283630     -0.00899430      0.01288050       1
H               3.11353000     34.62980000     -0.16384700     -0.02606590      0.00739299     -0.10257400       1
O             -14.70510000    -12.37430000     14.52620000     -0.00204895      0.01327780      0.08058520       8
H             -14.30300000    -13.95930000     13.97190000      0.00826171     -0.06177840     -0.00588022       1
H             -14.59960000    -11.59140000     13.01880000      0.00002103      0.05200790     -0.07497050       1
O              -6.21272000      4.76574000     13.43400000      0.01784530      0.05333780      0.00153941       8
H              -4.86592000      6.15414000     13.74340000     -0.03799180     -0.04551790     -0.00771618       1
H              -5.48194000      3.11672000     13.39380000      0.01856700     -0.00541068      0.00152773       1
O              26.40350000    -13.24180000     -4.00640000      0.00187365      0.00705757      0.00339432       8
H              24.80290000    -12.40910000     -3.90253000     -0.00948111      0.01028710      0.00685280       1
H              25.94340000    -14.83920000     -4.76819000      0.00654674     -0.00849441     -0.00697867       1
O              20.37730000      8.21820000     42.19090000     -0.02160290     -0.00348679      0.01708060       8
H              19.66670000      6.85279000     43.28010000      0.01836300      0.02067190     -0.01324330       1
H              22.00130000      7.76123000     41.56300000      0.00643370     -0.01302810      0.00029421       1
O              15.22760000     25.28120000     44.48220000      0.02435780      0.06523880      0.01458600       8
H              16.71880000     26.48580000     44.73240000     -0.03942030     -0.01096250     -0.00098776       1
H              16.09170000     23.78760000     44.26230000      0.00929688     -0.05255710     -0.01010100       1
O             -14.93260000      9.99139000     20.35140000      0.03808170     -0.01328720     -0.09208430       8
H             -13.16840000      9.30654000     20.08290000     -0.02470580      0.01961790     -0.00585625       1
H             -14.90160000      9.90898000     22.04440000     -0.01491420     -0.00317670      0.09409140       1
