192
Lattice="24.27516 0.0 0.0 0.0 24.27516 0.0 0.0 0.0 24.27516" Properties=species:S:1:pos:R:3:force:R:3 TotEnergy=-1103.46238 cutoff=-1.0 nneightol=1.2 pbc="T T T"
O       23.20360000      20.17159000      20.16512000       0.01371660      -0.01930450       0.00840402
H       21.47510000      20.03996000      19.57772000       0.01236920      -0.00225117      -0.00601387
H        0.05044000      18.73689000      19.56292000      -0.02261400       0.01669020       0.00146564
O       22.54984000      19.92194000       1.23097000       0.00239291      -0.06979990       0.00602518
H       22.04224000      21.42494000       1.98077000       0.00059293       0.04178850      -0.01113050
H       23.02954000      19.69564000      23.73964600      -0.00207499       0.03050600       0.00337521
O       11.14630000       2.11299000      14.18710000      -0.09687740      -0.11361200      -0.06402820
H       12.17530000       2.54567000      15.38660000       0.08772510       0.05010400       0.09757840
H       10.50220000       0.31154500      14.98590000       0.00890216       0.05296820      -0.04022430
O       20.63662000      13.32896000      23.26319000      -0.01898160       0.05702410      -0.01673560
H       21.01989000      12.92596000      21.33517000      -0.01641680       0.01708810       0.04777500
H       19.95821000      15.30589000      23.59948600       0.02951840      -0.08313200      -0.03687850
O        5.39734000       7.04844000      18.14270000      -0.02950480      -0.09392260      -0.16667000
H        5.96495000       8.03404000      19.29490000       0.07438280       0.09298210       0.10628800
H        6.50046000       7.06514000      16.40710000      -0.02494660       0.00269703       0.06046160
O       18.77974000      11.40830000       9.30475000       0.00521569      -0.03795860      -0.03591130
H       17.69892000       9.66784000       9.71009000       0.04498450       0.04653560      -0.00917487
H       20.09935000      11.29790000       7.75013000      -0.05274100      -0.00412929       0.04262680
O       20.94434000       0.44524000      13.08190000       0.05013000       0.01078660      -0.06668990
H       22.61024000       1.32964000      12.88750000      -0.01296830      -0.00064583       0.04100200
H       21.07354000       0.20784000      11.19960000      -0.03411310      -0.01719140       0.02749540
O        0.01726500      18.90622000      10.07540000       0.00833183      -0.01438600      -0.02778220
H        0.34509300      17.85482000       8.59658000       0.03170110      -0.01698340       0.01216580
H       22.88089000      19.46502000       9.13986000      -0.03575910       0.03469500       0.01162100
O       10.79954000      14.22062000      20.03150000      -0.00267860       0.02369520       0.00798369
H       10.47034000      16.00172000      20.36600000       0.00953729      -0.00355565      -0.00431462
H        9.66244000      13.41832000      21.18310000      -0.00701524      -0.01115930      -0.00035902
O       10.17220000      19.59022000      21.81502000      -0.03410440      -0.02150160       0.02112770
H       11.64800000      20.55142000      21.75522000       0.03529410       0.01672120      -0.01037020
H       10.07040000      19.01712000      23.56822000      -0.00373284       0.00344426      -0.00602260
O       15.80997000       3.79480000       7.30799000      -0.02671890      -0.04749530      -0.00373712
H       14.70051000       2.58881000       6.27214000       0.01872570       0.03848920       0.01311000
H       15.71794000       2.74627000       8.89268000       0.00735767       0.00863579      -0.01569180
O       12.05536000       1.28394000       4.21318000      -0.01182030      -0.01441370      -0.06353360
H       10.23156000       1.52584000       4.04478000       0.00093409       0.00733812       0.01659780
H       12.34266000       1.07724000       2.30178000       0.01112230       0.00578588       0.04420900
O       15.95720000      18.88702000      10.42086000       0.01491710       0.01291890      -0.03120890
H       15.62140000      17.43212000       9.33876000      -0.00009105      -0.00497180       0.00516772
H       15.46870000      18.41442000      12.05976000      -0.01588380      -0.00183961       0.02625340
O        5.24024000      16.40640000      12.72144000      -0.06354840       0.01308330      -0.06454780
H        4.34894000      14.82420000      12.62004000      -0.00801174       0.00292286      -0.01848230
H        6.19254000      16.04200000      14.04604000       0.06979520      -0.01470390       0.08225450
O       22.35707000       1.36147000       1.49360000      -0.02361810      -0.02096630      -0.10128700
H       22.64486000       1.71402000       3.11359000       0.01428630       0.02807220       0.08915600
H       23.84206100       1.65383000       0.48372400       0.00097947      -0.00579228       0.00395425
O       20.29322000      22.20510000       8.00044000      -0.03690990      -0.02830850      -0.01533290
H       19.96842000      23.71970000       7.02114000       0.00777507       0.00115972       0.00206875
H       18.77152000      21.09940000       7.72064000       0.03180570       0.02375910       0.01373110
O       15.84482000      11.19450000       0.52664000       0.03508520       0.02707950       0.00026972
H       15.13652000      10.24680000      23.43200000      -0.00866147       0.00244729      -0.02020520
H       17.49842000      11.99130000      24.15700000      -0.03014130      -0.01730840       0.00567781
O        5.89366000      14.57048000       3.18836000      -0.03702080      -0.03774310       0.01722390
H        6.18626000      13.97848000       5.09796000      -0.01471830      -0.00694639      -0.05816100
H        4.66596000      13.21218000       2.30146000       0.04768520       0.04052410       0.03683960
O       19.45648000      20.82510000      16.17374000       0.03554140       0.02008350      -0.00438392
H       20.30348000      21.93900000      14.89434000      -0.01317610      -0.00111980       0.01755050
H       18.12718000      20.08900000      15.28294000      -0.02902790      -0.01232400      -0.01366720
O        6.67358000       2.74816000       3.05861000       0.02141100      -0.01499840      -0.05816100
H        5.17598000       2.50196000       3.95638000      -0.02947220      -0.00167173       0.02373590
H        6.32928000       2.11386000       1.27361000       0.01039460       0.02037100       0.03793580
O        7.21764000      20.67590000      10.19466000      -0.01310260       0.09405760       0.00781915
H        8.62034000      20.43460000       9.21406000       0.04637090      -0.01329570      -0.03561320
H        6.56854000      19.23210000      10.77726000      -0.03592140      -0.08579210       0.02376040
O        8.87726000       6.71493000      13.86398000       0.02121360       0.13503900       0.02465440
H       10.61776000       7.80755000      14.16168000      -0.06942930      -0.02361520      -0.00233524
H        9.67726000       5.25885000      13.62158000       0.03127870      -0.10470100      -0.01289480
O        7.85576000       2.74962000      22.29456000      -0.02631870      -0.01540720       0.01351540
H        9.56838000       2.52078000      22.67131000       0.02681690       0.00086061      -0.00292294
H        7.65743000       3.73495000      20.82725000       0.00121434       0.01182470      -0.01573020
O       18.86824000       4.80695000      22.94660000       0.00402244      -0.03093380       0.09638840
H       18.14154000       5.86663000       0.23554000       0.02533850      -0.01653100      -0.04095890
H       19.93914000       3.45828000      24.12950000      -0.02505800       0.04452690      -0.04901480
O       21.60196000      11.64098000       4.75214000      -0.01225290       0.02185260      -0.06017070
H       20.67708000      11.05848000       3.17914000       0.01622470       0.00078299       0.04119560
H       22.13027000      13.33068000       4.07064000       0.00214300      -0.02549930       0.02535640
O       10.40780000      12.97634000      10.67830000      -0.05124090      -0.02489040       0.01991490
H        9.80643000      11.94404000       9.32571000      -0.03179320      -0.01015340      -0.00131582
H       11.84350000      13.37944000       9.85965000       0.07946290       0.03929540      -0.02750540
O        5.83856000      20.94230000      18.89720000       0.05074760       0.04949350       0.03146220
H        4.63246000      19.64860000      19.05200000      -0.01115740      -0.02811340       0.01043220
H        7.07686000      21.12880000      20.42510000      -0.03567500      -0.02247500      -0.04575070
O        6.22434000       8.24184000       3.01948000      -0.00653576      -0.00055696      -0.00611495
H        6.71614000       6.49484000       2.92738000      -0.00144585      -0.01031520       0.00532684
H        4.55814000       8.39134000       2.19888000       0.01181860       0.00364032       0.00244433
O       13.28880000       9.39854000      20.71950000      -0.00280590       0.08475180      -0.02833140
H       13.27300000      10.88854000      19.36710000      -0.00069067      -0.04332900       0.05295680
H       13.44240000       7.99674000      19.67970000       0.00356643      -0.04413820      -0.02426710
O        1.91923000      23.93402000      22.05490000      -0.08342320       0.04400760       0.04440910
H        0.99356400      22.63722000      21.28310000      -0.02098520      -0.02314650      -0.01549570
H        3.51230000      23.73562000      21.62580000       0.10432300      -0.01388350      -0.02963150
O        0.54416300      16.25290000       4.89030000       0.06967710       0.00551618      -0.01270600
H        2.52152000      16.38250000       4.33205000      -0.07216500      -0.00914523       0.01733230
H       23.95762700      17.48090000       3.86389000       0.00354916       0.00625175      -0.00694774
O        1.29534000       3.22033000      13.71660000       0.04869460      -0.03829510      -0.00304386
H        2.60988000       1.79720000      13.36220000      -0.04176020       0.04091320       0.00285182
H        1.47907000       3.46545000      15.55700000      -0.00761047       0.00139107      -0.00321395
O       13.62572000       4.64918000      18.08042000      -0.08755770      -0.01641330       0.06383370
H       15.27032000       4.61948000      17.63632000       0.07740170      -0.00669331      -0.02554640
H       13.41872000       3.53508000      19.62702000       0.00858902       0.02366030      -0.03240150
O        2.48063000       3.85988000       6.83036000       0.02796320       0.05028590       0.02514700
H        3.52502000       5.23018000       8.07206000      -0.04320480      -0.06361230      -0.03712840
H        2.03067000       2.24218000       7.59086000       0.02124210       0.01301100       0.01522140
O       14.71902000      15.88164000       2.76686000       0.12312300      -0.01924930       0.06137180
H       14.46192000      14.22714000       2.27099000       0.01306010      -0.05898170      -0.01248380
H       13.41412000      16.48164000       1.99769000      -0.12281700       0.07805350      -0.05359840
O       20.28020000      12.97794000      13.96120000      -0.00493909       0.01399040       0.01972760
H       21.00080000      14.63374000      14.36010000       0.00624900      -0.00299196      -0.00678795
H       20.10900000      12.88064000      12.15400000      -0.00314177      -0.01100090      -0.00830689
O        6.38676000      11.34656000       6.88684000       0.03023040      -0.04799030      -0.05947190
H        6.09026000       9.78486000       5.44483000       0.01379560       0.04979660       0.04295260
H        4.98536000      11.39406000       7.93454000      -0.03511320       0.00026242       0.02503960
O        1.52612000       4.15531000      18.98520000       0.00199434       0.01703120      -0.01191260
H        1.52672000       2.67872000      20.15450000       0.01867930       0.02739810      -0.01268680
H        2.94022000       5.55776000      18.74200000      -0.01979330      -0.05079420       0.02084620
O        2.13416000      12.05426000      10.36694000      -0.06925070       0.04123760      -0.04525670
H        2.74926000      10.55086000      11.02864000       0.00246875      -0.04596270       0.01051520
H        0.38126000      11.76946000       9.47124000       0.06702000       0.00358045       0.03596080
O       14.84130000      14.61360000       7.93924000       0.02560200      -0.02511500       0.01176900
H       16.25540000      13.39380000       8.51644000      -0.01879070       0.02118050      -0.01435940
H       15.03490000      14.80870000       6.12964000      -0.00380880       0.00114679       0.00339624
O        2.67826000      23.87091000       9.99214000       0.06520140       0.01118060      -0.01335130
H        4.37536000      23.03909000       9.63044000      -0.02763960       0.02322700       0.01015950
H        1.71916000      22.41663000      10.03004000      -0.03619410      -0.04101860       0.00421473
O       16.39354000       7.25306000      11.10464000       0.02487300       0.00241318       0.01762830
H       16.02154000       6.31555000       9.55804000       0.00374375      -0.00811473       0.01190860
H       17.61174000       6.34203000      12.35684000      -0.03709070       0.00651198      -0.03143480
O       14.71200000      14.02232000      16.31446000       0.05076630       0.00669395      -0.03391430
H       16.39702000      14.10572000      15.43299000      -0.01351590       0.00932278       0.02915160
H       14.27116000      12.62582000      15.21900000      -0.02459430      -0.01564850       0.00586500
O        4.19598000       7.19986000      10.91926000      -0.02349270      -0.01894450       0.00446067
H        5.90698000       7.57446000      11.60856000      -0.02590100      -0.02592820       0.00336431
H        3.00688000       5.87836000      11.78586000       0.04776130       0.03438640      -0.00389434
O       15.56360000       0.18376300      10.89240000       0.01137580      -0.02140390      -0.00878214
H       14.19680000       0.14618800      12.00150000      -0.03597800       0.02566400       0.02767330
H       15.54210000      22.63892000      10.68810000       0.01937620      -0.00327830      -0.01583140
O       15.30432000      21.47480000      20.85444000       0.04465820      -0.03762970      -0.03302480
H       15.82042000      21.10301000      18.95434000      -0.02216890       0.01197700       0.06738500
H       16.47982000      20.23671000      21.93854000      -0.03260160       0.03132130      -0.03457800
O        8.51834000      12.92516000      15.58997000       0.00748820       0.02670150       0.05262280
H        9.77248000      13.97116000      16.54871000      -0.02814260      -0.02402210       0.00427679
H        9.31497000      12.97866000      14.04926000       0.00948136      -0.00341284      -0.05461360
O       23.03360000      17.23640000      14.94860000      -0.00058796      -0.00419845       0.00756805
H       21.90750000      18.58650000      15.43240000      -0.00543245       0.00209522       0.00813923
H       23.95760000      17.97040000      13.58720000       0.00381110      -0.00228452      -0.01871260
O        9.17202000      21.47400000      15.08284000      -0.05716790      -0.01895540      -0.01104630
H        7.49555000      21.39460000      16.29279000       0.05179370      -0.00451804      -0.03313170
H        8.66644000      20.86060000      13.26486000       0.00632159       0.02852060       0.05157290
O       21.16750000       2.71408000       6.22324000       0.02004880       0.02166250       0.03553200
H       22.68030000       3.29958000       7.31194000      -0.04752110      -0.00574031      -0.03252830
H       19.61330000       3.71718000       6.57044000       0.02488670      -0.01106840      -0.00102373
O       17.81443000       7.60577000       2.87980000       0.01399040      -0.03513860       0.00828231
H       16.79688000       8.81642000       2.05401000      -0.00863713       0.04240930      -0.01949310
H       16.48604000       6.71048000       3.66705000      -0.00441262      -0.01868970       0.02216790
O       13.64080000      18.91982000      15.40030000      -0.04260350      -0.06830200      -0.00292720
H       11.65910000      19.24772000      15.47420000       0.06173660      -0.00026274      -0.00135614
H       13.84370000      16.80042000      15.46260000      -0.01000790       0.07206370       0.01016680
O        2.54417000      16.79080000      18.75914000      -0.00939980       0.00335096      -0.07465580
H        2.82040000      15.27090000      19.72954000       0.00278255      -0.00811914      -0.01579300
H        2.32187000      16.43100000      16.70364000       0.00569112       0.00620355       0.09325240
O       18.10284000      18.17634000      23.21761000      -0.02135510      -0.04485130       0.08862070
H       19.51734000      18.78704000      24.21503400       0.01400100       0.01779520      -0.00833263
H       17.23024000      17.32404000       0.63580400       0.00561517       0.02408450      -0.06421410
O       21.66480000      11.24090000      18.55872000      -0.00681448       0.03623480      -0.06273870
H       21.03730000       9.55930000      18.69762000      -0.00105703      -0.02272580       0.00283684
H       21.20440000      11.66730000      16.58472000       0.01236840      -0.00865521       0.05834760
O       10.00616000      17.75024000       2.88394000      -0.00396731      -0.03987260      -0.05775860
H        8.93946000      16.28564000       3.17785000      -0.00544462       0.00131854      -0.01495220
H        9.85686000      18.61464000       4.36205000       0.00495878       0.03735340       0.05343040
O       11.48790000      20.37822000       6.87604000      -0.11746200       0.06860690      -0.03450550
H       12.90630000      19.66722000       7.32154000       0.10633000      -0.04278180       0.03159030
H       11.68520000      21.99652000       5.99224000       0.01011640      -0.01393540       0.01101860
O        2.69203000      10.59284000       0.63513400       0.01798730       0.01039060      -0.00886540
H        1.04900000      10.92884000       1.24576000      -0.01684170       0.00393504      -0.00007658
H        2.85601000      11.22944000      23.15195000      -0.01019740      -0.01156190       0.00762843
O       13.03226000      10.07866000      13.95610000       0.14688600      -0.13197200       0.12356500
H       14.06796000       8.84916000      12.97420000      -0.00494588       0.01673360       0.00449357
H       12.01706000      10.81146000      13.01220000      -0.13709500       0.09998670      -0.13797700
O       17.66999000       4.03244000      15.03950000       0.03413980       0.08436230       0.04177930
H       19.29830000       4.40923000      16.08940000      -0.03770620      -0.01109330      -0.01909210
H       17.62926000       2.40008000      14.52680000       0.00890627      -0.06235640      -0.02208910
O        2.51574000      11.42076000      19.82355000      -0.03783270       0.03800310       0.00974568
H        0.69634000      11.71406000      19.17858000       0.03910960      -0.02868800       0.00598570
H        3.48744000      10.13406000      19.03544000      -0.01028190      -0.00477574      -0.01710580
O       20.79680000       5.99619000      18.49474000      -0.11838700       0.02474950       0.04334460
H       19.80080000       5.87957000      20.42084000       0.03952000      -0.00917657      -0.05935240
H       22.43580000       5.65960000      18.78924000       0.08328610      -0.02282610       0.01638560
O       13.77020000       1.66214000      22.91834000       0.05504210       0.05606470       0.02047320
H       15.57260000       2.44054000      23.08474000      -0.05115290       0.00467527       0.00190786
H       14.52910000       0.16414000      22.37624000      -0.00340976      -0.05782590      -0.02505630
O        8.17046000       9.86565000      22.17260000      -0.00098562      -0.00984591       0.04185290
H        9.97216000       9.53135000      22.06490000      -0.00075763      -0.00009149      -0.00988884
H        7.82466000       9.47951000      24.00480000      -0.00049319       0.00882732      -0.03349650
