192
TotEnergy=-1103.45441000 cutoff=-1.00000000 nneightol=1.20000000 pbc="T T T" Lattice="24.41548000       0.00000000       0.00000000      -0.00000100      24.41548000       0.00000000      -0.00000100      -0.00000100      24.41548000" Properties=species:S:1:pos:R:3:force:R:3:Z:I:1
O              22.63240000     -0.34866200    -31.21850000     -0.06036940     -0.08597760     -0.18047400       8
H              22.97480000      0.15739500    -29.76850000      0.05552840      0.07822790      0.18963900       1
H              21.51020000     -1.78047000    -30.83690000      0.00440728      0.01100970     -0.01705080       1
O              51.41420000     48.48570000      8.42401000     -0.03127530      0.03906350      0.02617870       8
H              52.13100000     47.10850000      7.65669000      0.04184610     -0.04873860     -0.02119600       1
H              49.73070000     48.33750000      7.78389000     -0.01799960      0.01252690     -0.00080063       1
O              10.94400000     -0.30176500     15.62560000     -0.03201990      0.15761500      0.06544270       8
H              10.72360000     -1.92010000     15.40530000     -0.01460760     -0.12567400     -0.01231650       1
H               9.59624000      0.40456000     16.94780000      0.04826900     -0.02759920     -0.04643680       1
O              -5.89241000     -7.80042000      1.40182000      0.00347029     -0.01166220      0.00387621       8
H              -5.36221000     -6.49355000      0.29233100      0.02990130      0.01290810     -0.01694360       1
H              -7.52334000     -7.10905000      1.64978000     -0.02720580     -0.00506044      0.01491020       1
O               8.02705000     31.32690000     20.72800000      0.00555705      0.02681860      0.02722740       8
H               8.71774000     32.64520000     22.17540000     -0.01318820     -0.05738310     -0.07622600       1
H               9.12265000     30.71680000     19.22030000      0.00083420      0.02881330      0.05164000       1
O              -3.57923000     12.33360000      9.11581000     -0.03715610     -0.04443790     -0.00797284       8
H              -3.17130000     11.83770000      7.41529000     -0.00588529     -0.00095122     -0.01186520       1
H              -2.39444000     13.56480000      9.39482000      0.04109630      0.04170540      0.01725550       1
O              44.00730000     23.19330000     11.47340000      0.00832887      0.00322785      0.00360326       8
H              44.87230000     24.69870000     12.15910000     -0.02206570     -0.01226690     -0.01736220       1
H              43.20780000     23.43790000      9.79696000      0.00725767      0.00262758      0.01749180       1
O              -1.94220000    -29.77170000     12.71960000     -0.00184911      0.00016538     -0.00434833       8
H              -0.94989700    -30.80410000     11.53470000     -0.00362949      0.01575840      0.00192510       1
H              -2.80105000    -28.28330000     11.93750000      0.01184090     -0.02012560      0.00127685       1
O              29.71680000    -35.05740000     18.62680000      0.00322865     -0.04407600      0.01139200       8
H              30.88030000    -36.04940000     19.67080000     -0.01004060      0.00615998     -0.00679606       1
H              30.45350000    -33.45220000     18.51560000      0.00697934      0.03435450     -0.00698233       1
O               6.82292000    -27.70890000    -26.34250000     -0.07319970     -0.00299460      0.04156940       8
H               8.29473000    -28.65250000    -26.21970000      0.04767390     -0.01950020      0.00267316       1
H               5.73723000    -28.57290000    -24.91810000      0.01800950      0.03050960     -0.04253570       1
O             -11.42680000      2.06688000      5.60457000      0.08585030     -0.00171553      0.08556220       8
H             -12.78880000      1.54217000      4.80240000     -0.09379900     -0.04539230     -0.05180840       1
H             -10.93940000      3.43640000      4.67937000      0.02112050      0.05022720     -0.03133280       1
O             -10.51270000     30.36080000     50.04380000     -0.02891940      0.00508141      0.02162730       8
H             -10.29970000     29.31810000     48.63290000     -0.01043300     -0.02979350     -0.03645750       1
H              -8.78421000     30.63440000     50.32710000      0.03152990      0.02458480      0.01972880       1
O              14.28840000    -30.50210000    -16.87660000      0.00615248      0.06358750     -0.03067950       8
H              14.47910000    -32.16800000    -16.42420000     -0.00266386     -0.04975270      0.02213130       1
H              12.70640000    -29.76370000    -16.38090000     -0.00454799     -0.01241860      0.00941792       1
O              25.22290000     15.35810000     34.67150000     -0.02699260      0.02562420     -0.10181400       8
H              26.32820000     15.37320000     33.09700000     -0.02917660      0.00898880      0.02873800       1
H              26.36270000     14.84330000     35.81460000      0.05416920     -0.02759470      0.07120890       1
O              -0.72142200      2.76931000     -2.63373000      0.01700630      0.01788790      0.02006840       8
H               0.15403700      4.37321000     -2.52630000      0.00845085     -0.00033756     -0.01400450       1
H              -0.17562400      2.07703000     -1.01353000     -0.01178820     -0.01730930     -0.00859481       1
O             -26.69390000     24.52900000     29.83290000      0.03504920      0.00506666     -0.00568432       8
H             -26.02410000     23.59660000     28.33040000     -0.01785650      0.01542470      0.01016120       1
H             -28.40270000     24.13490000     30.21080000     -0.01127810     -0.01498310     -0.00610368       1
O             -31.82030000     12.11350000     23.56100000     -0.01865900     -0.08593040     -0.00904548       8
H             -32.58940000     11.65760000     21.94910000     -0.00051586      0.01046320      0.00293658       1
H             -31.37170000     13.74360000     23.79510000      0.02007160      0.07325930     -0.00015451       1
O             -19.52860000     64.09960000    -18.40070000      0.03295150     -0.00012066      0.03351740       8
H             -18.08840000     63.89980000    -17.18150000     -0.01073060      0.02014860     -0.02144340       1
H             -20.12170000     62.46130000    -18.04250000     -0.02230390     -0.02802100     -0.01360590       1
O              67.33340000     20.73600000     40.75650000      0.00046315      0.02623250     -0.07953500       8
H              67.34390000     21.55490000     38.79120000     -0.00168556     -0.03201980      0.07785290       1
H              68.20190000     19.12980000     40.53740000     -0.00999657      0.01137090      0.00113560       1
O              57.48950000    -24.04270000      4.06397000      0.03913480     -0.01610160      0.10952100       8
H              56.66780000    -22.97660000      5.39841000      0.00055287     -0.00366580     -0.01775520       1
H              56.72420000    -23.77950000      2.61702000     -0.04913130      0.02836490     -0.10324600       1
O              33.61280000     19.07010000    -14.22050000     -0.04055260     -0.05765950     -0.10115000       8
H              33.37280000     17.24770000    -13.75990000     -0.00335859      0.00739797     -0.03410640       1
H              34.09920000     19.34070000    -12.67780000      0.04833850      0.05298420      0.12793100       1
O             -10.00420000      5.62139000     62.51020000     -0.07030860      0.04301920     -0.00555284       8
H             -11.38670000      4.52853000     61.84930000      0.01838570     -0.00185524     -0.00012503       1
H              -8.42367000      4.95777000     62.64890000      0.05397090     -0.03604670      0.00234874       1
O               6.58813000      2.25271000     -0.72862400     -0.00994362     -0.06294720      0.05928930       8
H               6.37498000      0.60768200     -1.50488000      0.00457228      0.01162410     -0.00955444       1
H               6.66347000      3.64495000     -1.72106000      0.01118240      0.04463910     -0.04998060       1
O              43.90710000      5.45368000     22.17340000      0.02192850     -0.03168460     -0.09462120       8
H              43.69190000      6.30426000     23.64250000     -0.00831707      0.03491120      0.06866580       1
H              45.59130000      4.70731000     21.96470000     -0.01205320     -0.00422348      0.01270410       1
O              -2.80025000     61.23630000     28.06690000      0.04821040     -0.00098973     -0.01864360       8
H              -3.76954000     62.71240000     27.64520000     -0.00049832      0.00493866     -0.00364216       1
H              -1.06108000     61.50730000     27.20730000     -0.04769420     -0.00049605      0.02128070       1
O               8.56866000     38.34910000     10.30050000     -0.08733800      0.03239920      0.01275730       8
H               7.01090000     38.02260000     11.52330000      0.04983190     -0.00153798     -0.02560870       1
H               9.94460000     37.31330000     10.57030000      0.02478450     -0.03060830      0.01988560       1
O             -18.13600000     18.92430000     17.59550000      0.04001760     -0.06442640      0.02924530       8
H             -18.85580000     20.04300000     16.51270000     -0.03314380      0.04548740     -0.03572110       1
H             -17.66800000     19.68080000     19.15690000     -0.01056980      0.01722070      0.01494220       1
O              34.19380000     32.89620000     50.86270000      0.12511300      0.15846100     -0.03815140       8
H              35.63610000     31.98770000     50.55180000      0.04629110     -0.05034500     -0.01100910       1
H              32.85700000     32.17380000     51.22700000     -0.17995100     -0.11346600      0.05165910       1
O              13.39770000     35.31650000     19.58080000     -0.00573484     -0.01845490     -0.03424360       8
H              13.64790000     36.38870000     17.99200000     -0.00764275     -0.01660620      0.02770880       1
H              12.90870000     33.54570000     18.90290000      0.01185790      0.03254130      0.01836570       1
O              -0.66831600    -25.75500000     25.03980000     -0.04668970     -0.05172280     -0.00309066       8
H              -2.51362000    -26.60460000     24.46850000      0.07249460      0.02602840      0.01203100       1
H               0.55899600    -27.21970000     25.30850000     -0.02373930      0.02510730     -0.00727446       1
O               1.61301000     14.32750000      0.79234700      0.03605600     -0.00946281      0.01856870       8
H               3.33025000     13.63890000      1.15684000     -0.03244730      0.00933519     -0.00843224       1
H               1.27140000     14.03560000     -0.98569400     -0.00225120     -0.00329020     -0.00412163       1
O               6.11605000      2.24523000     17.50050000     -0.05929210     -0.05421920     -0.00230732       8
H               5.13373000      0.50722800     16.66800000      0.02880970      0.07053720      0.03504390       1
H               4.97683000      2.82453000     18.92500000      0.02450300     -0.02041720     -0.03348680       1
O             -36.45210000     54.74160000    -30.57250000      0.02799040      0.00514990     -0.03097840       8
H             -35.63500000     54.83370000    -32.48060000     -0.01172740     -0.01334990      0.06055020       1
H             -35.30700000     53.92370000    -29.24500000     -0.01702810      0.00408130     -0.03290760       1
O               6.08828000     51.93420000    -16.94980000     -0.04450590      0.00897535     -0.06110620       8
H               7.12712000     51.75540000    -15.60320000      0.03405770     -0.00950652      0.06001050       1
H               4.49676000     50.95800000    -16.73460000      0.01634450      0.00185159      0.00810497       1
O             -35.05510000     36.75830000      2.91602000     -0.02569640     -0.05118560     -0.01108170       8
H             -34.09650000     36.40930000      1.38350000      0.02719670      0.01690640     -0.00299632       1
H             -36.07650000     35.21390000      2.57329000     -0.00056796      0.02935110      0.02679060       1
O              22.59950000     31.95150000     12.59870000      0.01891260      0.01129040     -0.00129321       8
H              24.45060000     31.67410000     12.38890000     -0.02516510      0.01143940     -0.00519054       1
H              22.31210000     33.67060000     11.95360000      0.00172852     -0.01877690      0.00360420       1
O             -13.68420000    -21.63290000     11.86500000      0.03296260      0.00773559     -0.06440870       8
H             -12.54990000    -22.14810000     10.33080000     -0.03792230      0.00801670      0.05149420       1
H             -13.51700000    -22.78780000     13.30410000      0.00180320     -0.01823560     -0.00152587       1
O             -46.25720000      7.19322000     20.95240000      0.01394240     -0.01151230      0.00729132       8
H             -47.30170000      7.88235000     19.68940000     -0.01785030      0.01288320     -0.01274440       1
H             -44.58610000      7.07330000     20.23540000      0.00851023      0.00209631     -0.00100398       1
O             -21.49450000    -16.16480000     35.23170000      0.00622147      0.01291970     -0.03319000       8
H             -20.26620000    -17.41720000     35.68920000      0.00956294     -0.00127057      0.00732223       1
H             -21.21490000    -15.82540000     33.37880000     -0.01153620     -0.00696495      0.02854310       1
O              15.09460000     13.15700000     32.36120000     -0.00300173      0.03061190      0.07102640       8
H              16.72420000     12.71130000     33.00670000      0.00520355     -0.00879538     -0.02431840       1
H              14.47690000     12.65440000     30.82530000      0.00578764     -0.02572990     -0.06162570       1
O             -21.09310000     -2.02249000     39.43730000      0.01347780      0.00721687      0.00241168       8
H             -22.88290000     -2.13681000     39.75110000     -0.00084001      0.00546584     -0.00153639       1
H             -20.78820000     -1.36380000     37.77170000     -0.00982086     -0.00414337     -0.00368057       1
O              46.44430000      6.44723000     30.10660000      0.01308000      0.05908840     -0.03825660       8
H              46.20920000      6.72714000     31.79680000     -0.00806756      0.01032270      0.05333630       1
H              46.21010000      4.77391000     29.87230000     -0.00122730     -0.07892210     -0.00965563       1
O             -10.50160000    -34.91160000     -8.81626000     -0.01062700      0.03105120      0.05367050       8
H              -8.87978000    -34.14970000     -8.58687000      0.00916680     -0.00459222     -0.01849540       1
H             -10.73280000    -35.85930000    -10.28940000      0.00753148     -0.01523630     -0.03369020       1
O              55.66660000    -17.93370000    -10.29540000      0.00462258     -0.01965080      0.01456420       8
H              57.17640000    -18.30440000    -11.33010000     -0.02051060     -0.00532338      0.02482210       1
H              55.49950000    -19.17240000     -8.81495000      0.01210410      0.01916980     -0.04429330       1
O              17.24150000     -1.26369000      6.72020000      0.03786800      0.02961540      0.01565410       8
H              16.15280000      0.00488100      6.12271000     -0.02274710      0.02353760     -0.00666950       1
H              16.40930000     -2.74044000      6.35025000     -0.02084880     -0.05026530     -0.00434790       1
O             -37.76370000     -6.06285000     46.87620000      0.03139620      0.00995307      0.03448990       8
H             -38.17530000     -7.86463000     46.88920000      0.00833445      0.01166360      0.00775621       1
H             -36.65530000     -5.69290000     48.48460000     -0.03799810     -0.02744890     -0.04112570       1
O               4.23530000    -11.34090000    -11.06480000     -0.00996229     -0.06913910     -0.00675729       8
H               4.66723000    -11.59110000     -9.23628000     -0.00565326      0.00525527     -0.02568940       1
H               3.69126000    -13.17630000    -11.81380000      0.02109520      0.05646980      0.02808660       1
O              18.87920000     15.17320000     13.58160000      0.03096940     -0.01984310     -0.09746600       8
H              20.42260000     16.39680000     13.03400000     -0.05401050     -0.03526210      0.01679550       1
H              18.51990000     13.98440000     11.76860000      0.02345560      0.05957870      0.08862980       1
O              11.02130000     18.88290000     -9.12462000      0.00373884     -0.04183240      0.04442740       8
H              12.09750000     17.42030000     -8.52584000     -0.01203560      0.02775720     -0.02585080       1
H               9.66100000     18.67470000     -7.83256000      0.00589297      0.00902228     -0.02579740       1
O              26.57060000     58.65360000     29.89000000      0.01544570      0.06136350      0.09241510       8
H              24.94480000     58.17280000     29.66070000     -0.06963410     -0.01694160      0.00129950       1
H              27.25610000     57.99360000     28.52730000      0.06038760     -0.04879960     -0.09050980       1
O              -5.99011000      7.77020000      2.12628000      0.05819550      0.05413950     -0.00174051       8
H              -4.64511000      7.12049000      3.36836000     -0.02877490      0.02971460     -0.02603370       1
H              -5.40673000      9.66668000      1.45797000     -0.02415820     -0.07524060      0.03274280       1
O              15.07530000    -26.78580000     20.33250000     -0.04189120     -0.04703470      0.01003340       8
H              13.52370000    -28.00310000     20.85790000      0.05758720      0.04318970     -0.02988820       1
H              15.66390000    -27.22450000     18.59420000     -0.01055980     -0.00008702      0.02276960       1
O              -4.42536000     20.39070000     47.02200000      0.00277219     -0.01180700     -0.00924752       8
H              -3.19175000     19.46350000     45.80940000     -0.04550450      0.03129010      0.01156840       1
H              -6.22121000     20.79150000     46.49080000      0.03784280     -0.00840749     -0.01230340       1
O              37.83670000     41.64780000      2.38268000      0.00360828      0.15305100      0.01761830       8
H              38.42690000     41.92190000      4.12176000     -0.01135170      0.03251900      0.00064647       1
H              38.03280000     40.05230000      2.57076000     -0.00011132     -0.17128600     -0.01204410       1
O              23.03950000     18.46430000    -30.22230000     -0.01994490     -0.06537400      0.10832700       8
H              23.11350000     16.53610000    -29.63070000      0.01267200      0.05881470     -0.03165960       1
H              23.36070000     18.72870000    -31.87460000      0.01425040     -0.00102241     -0.07111350       1
O             -21.45260000     43.97360000      1.65101000      0.00711948     -0.06991150      0.00428678       8
H             -21.67610000     41.98650000      1.51271000     -0.00458760      0.05873550     -0.00377757       1
H             -20.65530000     44.05430000      3.31588000      0.00045045      0.00777709     -0.00175733       1
O               5.81243000    -27.80810000     30.33900000      0.02969360     -0.02544680      0.01735900       8
H               7.37257000    -28.59940000     31.13930000     -0.04145130      0.01872240     -0.01416490       1
H               6.47735000    -26.37680000     29.41830000      0.01018880     -0.00119796      0.00063236       1
O               4.08383000     30.92700000      1.47479000      0.00323933      0.03648870     -0.02851600       8
H               4.18758000     31.50380000     -0.38478300     -0.00932204     -0.03152180      0.05341520       1
H               4.32602000     29.15440000      1.76495000      0.00319571      0.00104561     -0.01644810       1
O             -11.61910000    -13.42030000     11.82910000     -0.03373950      0.09760320     -0.01427640       8
H             -11.22470000    -15.01220000     11.80400000      0.02707640     -0.13940200      0.03038170       1
H             -11.18500000    -13.19890000     10.08870000      0.00733876      0.03293380     -0.01441810       1
O              -4.85386000      3.42584000     14.34440000      0.04462250     -0.00146084      0.00490698       8
H              -3.34607000      4.36171000     13.73160000     -0.02873200      0.00177914      0.00224852       1
H              -4.01900000      2.40099000     15.65060000     -0.01477770      0.00100149     -0.00314986       1
O              24.75100000    -10.73170000     -4.16764000     -0.07218110     -0.05303150     -0.04446620       8
H              26.36260000    -10.74290000     -4.91051000      0.03553040      0.00649316     -0.01208830       1
H              23.75960000    -12.13530000     -5.36089000      0.03083340      0.04698430      0.05822430       1
O              22.34990000      9.18080000     42.96910000     -0.03267460     -0.02481240      0.05382790       8
H              20.90980000      8.05006000     43.55100000      0.02960940      0.02859160      0.01319080       1
H              22.08720000      8.83069000     41.30240000      0.00446358     -0.00290770     -0.07278920       1
O              15.32420000     27.56240000     46.03150000      0.06712680     -0.04045030     -0.05891910       8
H              17.26570000     28.27560000     45.33590000     -0.07024520     -0.01982290      0.04612130       1
H              15.36450000     25.64350000     45.49140000     -0.00946771      0.05614740      0.01748750       1
O             -15.00780000     12.30740000     23.07490000     -0.12368000      0.02200880      0.14762200       8
H             -13.88230000     11.84160000     21.98700000      0.10780100     -0.05085140     -0.08553040       1
H             -15.12540000     11.17370000     24.81010000      0.01886760      0.03311330     -0.07136690       1
