192
Lattice="24.77208 0.0 0.0 0.0 24.77208 0.0 0.0 0.0 24.77208" Properties=species:S:1:pos:R:3:force:R:3 TotEnergy=-1103.32482 cutoff=-1.0 nneightol=1.2 pbc="T T T"
O       22.86880000      21.25345000      17.87556000       0.04702820      -0.02244140       0.02969610
H       21.43280000      21.86572000      17.10106000      -0.03727190       0.00678364      -0.02649450
H       23.38400000      19.57768000      17.23646000      -0.01203910       0.00938349       0.00014137
O       23.70772000      20.80612000      23.22992000       0.00580403       0.04960560      -0.00848556
H       24.22902000      22.59302000      23.76676000      -0.01349370      -0.04485250      -0.01489280
H       23.07612000      20.96132000      21.44577000       0.00900738      -0.00364152       0.02468510
O       13.52110000       7.00632000      14.39890000       0.00763133       0.04565400       0.04854430
H       14.11050000       7.68294000      16.12960000      -0.01266510      -0.02876570      -0.05290020
H       13.97210000       5.27920000      14.24530000       0.00801505      -0.01452100       0.00277647
O       17.59925000      14.67228000      21.44810000       0.02609780      -0.00456205       0.01036460
H       19.34731000      13.99918000      21.09866000      -0.02992300       0.01032170       0.00653775
H       17.58756000      15.19153000      23.22752000       0.00167412      -0.00406431      -0.02016900
O        6.03405000       8.82592000      19.44910000      -0.04710630      -0.03442990       0.10471700
H        7.41409000       9.23802000      20.54000000      -0.00376177       0.00124281       0.03272440
H        6.85629000       9.32192000      18.12620000       0.05097310       0.03255060      -0.14032900
O       19.58623000       9.10374000       7.93101000      -0.02707480      -0.04594930      -0.05608180
H       18.98307000       7.79227000       9.14681000       0.00963716       0.00349715       0.00297039
H       19.14786000       8.06209000       6.21041000       0.01588620       0.04262650       0.05248420
O       21.43202000       1.97012000      12.87620000      -0.01701450       0.00302147       0.00118858
H       23.09832000       1.48082000      12.58720000       0.05946050       0.00911461       0.01772980
H       20.93352000       0.91622000      11.49820000      -0.03211520      -0.01821360      -0.00870774
O       21.24498000      16.63566000       6.82265000      -0.03902340      -0.02279450      -0.00950661
H       22.14453000      17.76706000       5.39666000      -0.03189490      -0.04329760       0.01367660
H       19.66285000      15.37716000       6.51316000       0.06524530       0.05823700      -0.00666541
O        7.28552000      15.40976000      18.21980000       0.18302800       0.14194500       0.20564300
H        6.43992000      14.98046000      17.07090000      -0.19375100      -0.09010100      -0.26378900
H        7.32672000      14.09396000      19.30090000       0.00872622      -0.05075870       0.05549010
O        8.86857000      21.76846000      24.21656000      -0.20922400       0.01060250       0.07463840
H       10.38150000      21.36596000      23.96656000       0.19303800      -0.04677590      -0.02981020
H        8.36117000      20.73866000       1.10718000       0.02135360       0.02991390      -0.04590720
O       15.58594000       2.47417000       8.62754000      -0.01986070      -0.02566940       0.01828730
H       14.94901000       2.40108000       6.89897000      -0.00349195       0.00378802       0.00485820
H       14.28338000       1.74962000       9.80280000       0.00939771       0.00552663      -0.02731200
O       14.04478000       3.34962000       3.55004000      -0.09536840       0.05468400      -0.01329460
H       12.20638000       4.13322000       2.89544000       0.06557510      -0.01844280       0.05449220
H       14.10768000       2.43152000       2.04194000       0.03289950      -0.03873350      -0.02854630
O       14.97000000      18.00976000      10.23598000       0.05366220      -0.06936540      -0.13630900
H       15.98600000      16.25476000       9.69638000      -0.04979630       0.07661630       0.02160830
H       14.82400000      18.02246000      11.88688000      -0.00481340      -0.00232848       0.11655100
O        4.14722000      14.92630000      13.70532000      -0.01184980       0.01580230       0.00699282
H        2.51412000      15.68420000      14.18102000       0.01776160      -0.01022640       0.00101953
H        3.71342000      13.23300000      13.14452000       0.00102822       0.00173166      -0.00756731
O        1.15947000       0.99342300       0.91093300      -0.03352590       0.01601870      -0.05890290
H        1.64555000       0.48219400       2.47771000       0.02326830      -0.01594600       0.05311800
H        2.54455000       1.50617000      24.65329200       0.00673415      -0.00064588       0.00395412
O       19.57326000      23.67550000       9.22082000       0.04724070      -0.07739440       0.01292030
H       18.42586000       0.15602000       9.18702000      -0.06437550       0.05992890      -0.01295490
H       18.69726000      22.24330000      10.00532000       0.00987118       0.01408340      -0.00742858
O       15.90516000      10.43860000       0.45352000       0.00054086       0.01562480       0.09793230
H       15.43556000      10.72470000      23.60380000      -0.02085630       0.01948880      -0.06085200
H       15.10296000      11.70850000       1.65002000       0.01765640      -0.02893330      -0.03990020
O        4.10318000      16.71124000       4.46788000      -0.00613316      -0.05284620      -0.00071325
H        4.22108000      16.58344000       6.38988000       0.00543850       0.00011989      -0.03829960
H        3.94558000      14.88724000       3.69318000      -0.00172673       0.05509260       0.03100570
O       17.58994000      21.42810000      14.92902000      -0.01624970      -0.03575120       0.05192100
H       17.03564000      23.15210000      14.93442000      -0.00561051       0.00890599       0.00030865
H       16.68194000      20.61690000      16.57832000       0.01940250       0.02474900      -0.05430210
O        8.57044000       4.85348000       3.90419000       0.00014206       0.00332167      -0.04220030
H        7.47384000       4.44968000       5.25607000      -0.00485125      -0.01304850       0.02446940
H        8.02284000       3.70718000       2.43736000       0.01461700       0.01223140       0.02795940
O        5.34182000      18.07210000       9.07718000       0.02660720      -0.05047360       0.06494090
H        7.18002000      18.43370000       9.17538000      -0.01491330       0.00249633      -0.01186160
H        5.36602000      16.69870000      10.57008000      -0.01914080       0.04337100      -0.04379850
O        8.45568000       8.31620000      14.28234000       0.08455370       0.02704550      -0.01156500
H        9.33908000       9.68034000      13.02534000      -0.03317490      -0.02823850       0.03044050
H       10.28108000       7.80741000      14.91594000      -0.05512210      -0.00215246      -0.01789130
O        7.63774000       1.73282000       0.32337000      -0.01941630       0.01182140      -0.01746270
H        6.40988000       2.63123000      24.02593400       0.01924940      -0.01842240       0.00034245
H        8.21167000       0.08660300      24.38345600      -0.00802915       0.00907980       0.00751543
O       20.98282000       3.34246000       0.15762000       0.02275140       0.00957665       0.03018940
H       20.26782000       4.74503000       1.22312000       0.00725848      -0.01583780      -0.01325190
H       22.56152000       2.78992000       1.04342000      -0.02665750       0.00573185      -0.01426260
O       24.15545200      11.73854000       7.34512000       0.01420680      -0.01024520       0.00091337
H       22.69078000      10.79094000       7.70942000      -0.01748230      -0.05753460       0.00278990
H       23.09231000      13.14134000       7.50792000       0.00745207       0.06179290      -0.00563015
O       10.72290000      12.08012000      11.85790000       0.11142900      -0.01348260       0.00133301
H        9.79169000      12.44342000      10.43960000      -0.04285220       0.01593390      -0.04834500
H       12.67300000      11.84622000      10.92820000      -0.06849670       0.00288541       0.05664420
O        6.60628000      20.68710000      19.10710000       0.02131930       0.02329550       0.08543650
H        6.43968000      18.94190000      18.85680000      -0.00630793      -0.03368880      -0.01302770
H        7.13208000      20.61810000      21.08780000      -0.01328340       0.01413240      -0.06575400
O        7.74622000       9.76072000       2.71544000      -0.05103140      -0.04752610       0.01212980
H        8.14492000       7.84352000       3.29804000      -0.01065210       0.04563820      -0.01940750
H        5.72352000       9.81852000       2.67934000       0.07327820       0.00444015       0.00701174
O       13.51240000       9.91062000      19.85850000      -0.02208780      -0.06494060       0.03047420
H       14.61910000      10.88552000      18.95000000       0.03887370       0.02956820      -0.02520330
H       14.24180000       8.15232000      19.94920000      -0.01400930       0.03235170      -0.00277918
O        2.73441000      24.12086000      18.15340000       0.07622230      -0.00198914       0.00749121
H        1.45763000      23.03006000      18.52220000      -0.07172260      -0.02799410       0.00372742
H        4.06706000      22.85266000      18.69720000      -0.00238835       0.02445590      -0.01690920
O       23.87312800      18.82650000       3.15554000       0.02054900       0.01754950      -0.00258446
H        0.89452700      18.97620000       3.85643000      -0.03551790      -0.01521170      -0.03605820
H       23.59019000      19.30980000       1.26057000       0.01830660      -0.00743715       0.04174130
O        2.30894000       1.20250000      13.26380000       0.01554070      -0.04589200       0.00787770
H        2.84324000      24.59020900      11.96330000      -0.01138370       0.03454530       0.03841240
H        2.62997000       0.54807900      15.08780000      -0.00983839       0.00585224      -0.04485380
O       15.32746000       4.42314000      19.16916000       0.02004420       0.01026210       0.04101160
H       17.05516000       5.11884000      18.84096000      -0.01282550      -0.01478170      -0.00735008
H       15.46896000       3.82684000      20.97226000      -0.00518195       0.00093145      -0.03306520
O        6.97470000       2.63304000       8.63898000       0.00554312       0.04074840       0.01207170
H        6.23973000       4.10734000       9.74498000       0.00485636      -0.04086780      -0.01144970
H        5.89217000       1.18494000       8.70548000      -0.01066370      -0.00135835       0.00277116
O       12.16166000      14.93812000       2.06849000       0.15553100       0.10188000       0.22155000
H       11.47556000      14.29092000       0.88322100      -0.13018600      -0.12214400      -0.22803100
H       10.92696000      15.77942000       3.03881000      -0.02073400       0.02060000       0.00944142
O       18.21730000      10.35682000      16.43890000       0.00000309       0.02375780      -0.00681647
H       18.22830000      11.22692000      14.82950000      -0.01001350       0.00247075       0.00648239
H       19.11910000       8.87442000      16.03330000       0.00754694      -0.03279290       0.00162928
O        7.56708000      12.30878000       7.63071000       0.00468252       0.02627130       0.02631110
H        8.23878000      11.52028000       6.18345000      -0.00456654      -0.01877190      -0.01941120
H        6.43138000      11.26238000       8.57576000      -0.00583389      -0.00792704      -0.00604612
O        4.20706000       3.71820000      20.59300000      -0.03157620      -0.14282100       0.02678340
H        4.99516000       2.29246000      19.55440000      -0.03480150       0.02965720       0.02902790
H        4.96936000       5.00645000      19.93220000       0.06193560       0.12185900      -0.04844380
O        3.33928000      10.79128000      10.97052000      -0.03617940       0.01899500      -0.04837660
H        2.94458000       9.33818000      11.87212000       0.00513333      -0.03969010       0.02202070
H        1.84198000      10.81578000       9.73782000       0.03273280       0.01369620       0.02081610
O       16.06400000      13.75180000       6.42402000      -0.04181220       0.07227920      -0.05131470
H       15.40240000      12.26360000       6.90102000      -0.00711896      -0.08403290       0.03361790
H       14.42160000      14.15530000       5.43712000       0.04800020       0.01113930       0.01478460
O        3.67968000      23.30555000       8.91282000       0.01683680      -0.05841090      -0.01950040
H        3.88978000      21.50484000       8.22082000       0.01107690       0.03446060       0.03613620
H        2.26018000      23.63267000       7.88682000      -0.03132820       0.02155440      -0.00982346
O       18.15422000       5.54077000      11.27592000       0.03190170      -0.09089450      -0.00192298
H       16.97572000       4.10186000      10.42432000       0.03015590       0.05783270       0.01357000
H       19.76812000       4.17269000      11.71032000      -0.05367440       0.06334090      -0.00728236
O       14.73328000      18.76896000      18.53591000       0.05606370      -0.08322400      -0.03018910
H       16.43380000      17.62966000      18.99103000      -0.07281520       0.03978640      -0.00742987
H       13.77048000      17.50976000      17.08382000       0.02409750       0.04468470       0.04854080
O        4.91144000       5.42448000      12.26098000       0.02353330       0.02284570      -0.00249069
H        6.55584000       6.36518000      12.99108000      -0.04458570      -0.03183810       0.00088746
H        4.01404000       3.88818000      12.92898000       0.02243450       0.01748560       0.00163070
O       11.25470000       0.02037200      10.28480000       0.00647505      -0.06699100       0.07470850
H       10.94500000      23.71183000      12.02160000       0.00993124       0.05617970      -0.06080610
H        9.81174000       1.08190000      10.07510000      -0.02236020       0.01418220      -0.00536917
O       14.18076000      21.05522000      23.38822000      -0.00291916       0.00385386      -0.00555509
H       13.99096000      20.36574000      21.68212000       0.00924171      -0.00341657       0.00786428
H       14.94826000      19.80870000      24.48162000       0.00085899       0.00111914      -0.00881266
O       11.66340000      16.80423000      15.28772000      -0.01992220      -0.03540910      -0.01121750
H       10.16110000      17.06231000      16.35432000       0.01167470      -0.01095000      -0.00370370
H       11.40020000      15.02412000      14.59908000       0.00479505       0.03621760       0.00733377
O       22.00800000      18.03080000      12.03360000       0.01849780      -0.01734680      -0.03587580
H       20.71300000      18.89060000      12.79810000      -0.03693550       0.03154910       0.03483280
H       21.31210000      17.81510000      10.34790000       0.01513620      -0.00922714      -0.00752025
O       10.69110000      22.51230000      15.69908000       0.14335700      -0.05148440      -0.14618700
H        9.42564000      22.39900000      16.65389000      -0.15322800      -0.00499962       0.11955600
H       10.71310000      20.70120000      14.95161000       0.00930084       0.05382810       0.02128490
O       23.99190000      23.47632000       6.16962000       0.04514340       0.09377800       0.02912480
H       22.45290000      23.41882000       6.97752000      -0.04739680       0.02156060       0.04039520
H       23.76200000      22.03312000       5.40422000       0.00134586      -0.11124500      -0.07520690
O       18.02100000       6.68272000       3.05047000       0.04481230      -0.04147640       0.03895960
H       17.42411000       7.98724000       2.05731000      -0.02807910       0.03201320      -0.02939990
H       16.80799000       5.33317000       3.32721000      -0.01310750       0.00898311      -0.00550965
O       14.69270000       1.19388000      15.03780000       0.15101200       0.12242900       0.00843421
H       13.34680000       0.31298000      15.17170000      -0.13230900      -0.08055970       0.02578440
H       15.01320000       2.37238000      16.56660000      -0.01604690      -0.03823790      -0.02958730
O       24.06605600      16.10760000      16.13932000      -0.05627290      -0.02249510      -0.00138171
H       22.61948000      14.89990000      17.00512000       0.06142330       0.04111620      -0.02247430
H       23.43731000      16.52990000      14.38992000       0.00477478      -0.00798524       0.02730320
O       16.73382000      18.29342000       2.29594000      -0.00491076       0.01843590      -0.03254900
H       17.83982000      17.63462000       3.45106000       0.04999630      -0.01212340       0.02871430
H       15.25512000      17.69492000       3.01738000      -0.04366860      -0.00954788       0.00466160
O       21.97800000      12.75640000      19.20436000      -0.00495265      -0.02260240      -0.02131270
H       23.40780000      11.66410000      19.46586000       0.02525780       0.00994172       0.02701240
H       21.28690000      11.62880000      17.92656000      -0.02718200       0.01130650       0.00374978
O        8.89478000      18.45652000       3.68844000       0.07522260       0.05457750       0.03833060
H        7.39698000      17.66182000       3.61552000      -0.08514270      -0.04148920      -0.00002151
H        9.03328000      18.99612000       5.55390000       0.00611145      -0.00689087      -0.04141680
O       10.23900000      19.66486000       8.49402000       0.05780480       0.05912580       0.08008950
H       12.08820000      19.26536000       9.24902000      -0.05335800      -0.00669732      -0.03525500
H       10.13990000      21.45986000       9.49792000      -0.00362298      -0.05306000      -0.05221160
O        2.69161000      11.59962000       2.94249000       0.13231000       0.03979540      -0.09852410
H        1.54683000      11.25602000       4.02118000      -0.12283400      -0.03638080       0.10735300
H        2.41933000      10.88052000       1.33567000      -0.01624940      -0.00338682      -0.01589200
O       15.76654000      11.22248000      11.87000000       0.00047351      -0.02766240      -0.00337877
H       15.75694000       9.35588000      12.37420000      -0.00325144       0.03409730      -0.01428020
H       16.85320000      11.39888000      10.41390000       0.00406278      -0.01108200       0.00436928
O       19.96108000       5.45124000      17.25030000       0.03679650      -0.02264100       0.01304490
H       21.14951000       5.48978000      18.77700000      -0.01612170       0.00028087      -0.03453230
H       20.71219000       4.04976000      16.20890000      -0.02021780       0.02698140       0.01483540
O        1.23602000       9.93068000      21.31272000      -0.05903860      -0.02117500       0.02674520
H        0.32642000       8.23338000      21.38037000       0.02798060       0.03936240      -0.00608203
H        2.75162000       9.92118000      20.40521000       0.02764350      -0.01454790      -0.01552290
O       23.56370000       5.21706000      20.74092000      -0.06691960       0.04750630      -0.01442520
H       22.99300000       4.09044000      21.94632000      -0.02234550      -0.02548830       0.03978230
H        0.43292000       4.90801000      20.54032000       0.09427170      -0.02680370      -0.02054120
O       16.36680000       1.00452000      24.53182000       0.01388570      -0.06729360      -0.02822230
H       18.18310000       1.50002000       0.04584000      -0.02809030      -0.01557140      -0.00797435
H       16.19430000      23.73320000      23.91302000       0.00364434       0.08207360       0.02552920
O        9.39518000      12.02370000      22.66890000       0.02795990      -0.04776780       0.04497100
H       10.96618000      11.19540000      22.01200000      -0.02181880       0.01777130       0.00152440
H        9.26328000      11.11820000      24.43560000      -0.01149930       0.02410710      -0.04450920
