192
TotEnergy=-1103.31329000 cutoff=-1.00000000 nneightol=1.20000000 pbc="T T T" Lattice="24.34128000       0.00000000       0.00000000      -0.00000100      24.34128000       0.00000000      -0.00000100      -0.00000100      24.34128000" Properties=species:S:1:pos:R:3:force:R:3:Z:I:1
O              26.57210000     -2.53909000    -37.95230000     -0.04952050     -0.01960310      0.01377400       8
H              24.70250000     -2.55291000    -37.37650000      0.04391730     -0.00414611     -0.01356270       1
H              26.93880000     -4.33383000    -38.49420000     -0.00581124      0.02806610      0.00348872       1
O              52.71240000     49.19310000     -2.29211000     -0.08709470     -0.00343445      0.18967800       8
H              50.70570000     49.23550000     -1.91953000      0.06884080      0.01070030     -0.02877760       1
H              52.97880000     49.16810000     -3.87841000      0.01919900     -0.00388453     -0.16270900       1
O              13.48600000      0.58408200     18.27010000      0.00097754      0.00017666      0.01006800       8
H              13.10940000      2.06499000     19.33790000      0.00394693     -0.01631150      0.00151065       1
H              13.65850000     -0.92129100     19.33290000     -0.00095429      0.02355200     -0.00719302       1
O              -2.18133000    -12.51830000     -1.43690000      0.02233540     -0.09216850     -0.02616260       8
H              -1.64161000    -13.61830000     -3.05536000     -0.02049640      0.05347080      0.05360500       1
H              -2.60088000    -10.82280000     -1.67122000      0.01078230      0.02646440     -0.02664040       1
O               5.32173000     34.63840000     18.58900000     -0.04468660      0.03947160     -0.02410970       8
H               6.15032000     34.88750000     20.14370000      0.00663485     -0.01310380      0.03733830       1
H               5.99752000     33.29120000     17.60100000      0.02311750     -0.01682050      0.00086869       1
O              -7.11205000     11.32380000      7.27302000     -0.02516700      0.00135681     -0.05849730       8
H              -7.64196000     13.11220000      7.00455000      0.00344366     -0.02534540      0.00245792       1
H              -7.61788000     10.40830000      5.48106000      0.00483755      0.02252590      0.06289360       1
O              42.28150000     28.85330000     14.31310000     -0.05071920      0.00006071      0.04461840       8
H              43.54280000     28.08240000     13.43070000      0.04609580     -0.02602860     -0.03916040       1
H              41.41080000     27.37790000     15.10120000      0.00910976      0.02271010     -0.01171410       1
O               1.33625000    -36.22240000      9.18603000      0.03428790     -0.05204990     -0.02815730       8
H               2.12027000    -37.47090000      7.71726000     -0.01670830      0.03409540      0.05481860       1
H               1.63139000    -37.03440000     10.87770000     -0.00437961      0.01324190     -0.02781250       1
O              32.63630000    -34.44760000     16.99260000     -0.02809190     -0.05720380      0.04762430       8
H              31.51810000    -35.85240000     18.00920000      0.01260210      0.05325190     -0.04343770       1
H              34.06090000    -35.58320000     17.06340000      0.01139560      0.01084890     -0.01864510       1
O              11.37510000    -28.24690000    -23.94670000      0.00388283     -0.04312300      0.05181790       8
H              13.08690000    -28.44150000    -24.66150000     -0.00791802      0.00643968      0.00739419       1
H              11.44540000    -29.43510000    -22.35010000     -0.00725259      0.04151330     -0.05532310       1
O             -13.51210000      5.94560000      8.71068000     -0.05327070     -0.05837990     -0.04813380       8
H             -12.67820000      6.83005000      9.91597000      0.03210820      0.04179960      0.04822250       1
H             -15.46270000      5.65865000      9.17058000      0.04817660      0.01101470     -0.00426099       1
O              -8.65554000     27.78710000     49.96060000      0.03779910     -0.01105830      0.01044580       8
H              -9.51689000     26.80090000     51.21940000     -0.00691004      0.00196630      0.00166934       1
H              -6.96457000     26.85750000     49.69640000     -0.03473960      0.00773188     -0.00684060       1
O              10.74380000    -30.52920000    -16.04730000      0.03110690      0.00356477     -0.09189440       8
H              10.40380000    -31.84860000    -17.38620000      0.00086029      0.03074100      0.01074280       1
H              10.02310000    -31.21790000    -14.67770000     -0.03216030     -0.02734710      0.07902500       1
O              26.57260000     12.89590000     38.82320000     -0.01266340      0.01430920      0.01366240       8
H              25.13350000     13.84260000     39.55650000      0.01291190     -0.01724480     -0.01598600       1
H              27.27310000     12.03770000     40.26800000      0.00322932     -0.00104530      0.00022213       1
O               1.93769000      0.96020000      3.73049000      0.03934320      0.00189503     -0.06395110       8
H               2.84726000      1.44160000      5.25945000      0.01287130     -0.01196110      0.00109913       1
H               3.27737000      0.90863200      2.24007000     -0.04898550      0.00199569      0.05794650       1
O             -35.37490000     25.86590000     33.89650000     -0.09272250      0.09058950      0.06265340       8
H             -34.25080000     25.39500000     32.77090000      0.07936290     -0.03318760     -0.07702640       1
H             -35.95910000     27.81580000     33.41660000      0.00882799     -0.06421220      0.01528080       1
O             -31.62600000     11.77320000     23.69890000      0.02752460      0.02647510      0.08801240       8
H             -31.96010000     10.98480000     22.24710000     -0.01983750     -0.03930850     -0.08354450       1
H             -29.82010000     11.48920000     24.06220000     -0.00973508     -0.00486628     -0.01005320       1
O             -20.16130000     65.51350000    -20.86750000      0.04708210      0.11287000      0.09598080       8
H             -20.49430000     65.87590000    -18.90480000      0.01098560     -0.01199220     -0.06497240       1
H             -20.96780000     64.10950000    -21.23180000     -0.05753670     -0.10034900     -0.02772170       1
O              69.83470000     21.44540000     36.86700000     -0.00463853     -0.03442230      0.03388200       8
H              68.34280000     22.34850000     36.26030000      0.00320847     -0.01565980      0.01547330       1
H              69.27110000     20.27930000     38.41180000      0.01780730      0.04126000     -0.04741850       1
O              59.83210000    -10.61590000     -0.21409900     -0.04633480      0.06556010      0.00322365       8
H              58.47330000    -11.34020000     -1.11766000     -0.02567480     -0.00367124     -0.00358641       1
H              61.00820000    -11.80750000     -0.32494900      0.07474220     -0.06152290     -0.00044426       1
O              28.20050000     17.03380000    -15.23350000     -0.01123930      0.03039800     -0.03434720       8
H              29.45140000     17.35120000    -14.03600000      0.03668260      0.00675193      0.02764440       1
H              27.31030000     15.62000000    -14.67010000     -0.02082010     -0.03382250      0.00579952       1
O             -16.51420000      6.62237000     65.91650000     -0.10899100     -0.08010030      0.04046490       8
H             -14.89600000      7.04085000     65.73890000      0.09176820      0.01919070     -0.00501082       1
H             -16.87350000      5.29089000     67.30330000      0.02392830      0.04377740     -0.03839330       1
O              10.60600000      1.16835000      2.79381000     -0.03760450     -0.00312075      0.03696480       8
H               9.24084000      0.51862500      4.09606000      0.05368360      0.00749924     -0.04796800       1
H              11.06390000     -0.11318200      1.56270000     -0.01412600     -0.00676195      0.01283110       1
O              42.42500000     -0.90154800     32.29760000     -0.03612830     -0.01922890     -0.01122430       8
H              43.21780000      0.24830600     33.40950000      0.02058590      0.00775184     -0.01270220       1
H              43.21610000     -1.55179000     30.77110000      0.01459710      0.02104400      0.01978120       1
O              -3.33147000     61.91140000     33.98270000      0.15455900      0.08628470      0.04745910       8
H              -4.60273000     61.09890000     33.36020000     -0.10453000     -0.07993460     -0.06498360       1
H              -1.52379000     61.55250000     33.25260000     -0.04149610     -0.00374016      0.01682610       1
O               6.79267000     35.50690000     11.77130000     -0.04756940      0.07686960     -0.00006260       8
H               7.32768000     36.50140000     10.22830000      0.00199970     -0.03636710      0.01799050       1
H               5.55551000     36.89170000     12.51040000      0.03889350     -0.05401090     -0.01010860       1
O             -14.40590000     18.68750000     19.47030000      0.09632860      0.20172400      0.15871100       8
H             -15.04800000     17.45690000     18.76550000     -0.10320200     -0.18707200     -0.08983990       1
H             -14.78820000     18.89460000     21.40660000      0.01175600     -0.01393220     -0.06495530       1
O              27.10030000     36.50970000     50.53650000      0.09488080      0.02868740      0.08062230       8
H              27.12500000     35.81870000     52.29860000      0.00581540     -0.00261135     -0.03209690       1
H              25.64590000     36.12790000     49.86970000     -0.11970200     -0.02695900     -0.05405860       1
O               7.16936000     29.49370000     23.38880000     -0.00739006      0.02609830      0.00134864       8
H               8.96464000     29.21840000     23.37770000      0.00440369     -0.01988270     -0.00518221       1
H               6.12063000     28.06000000     23.74380000      0.01178080     -0.00836025     -0.00334678       1
O               4.31249000    -24.48320000     16.04590000     -0.25737700      0.10672600      0.02963510       8
H               3.09337000    -25.42510000     15.00140000      0.01400090      0.01385990      0.01386230       1
H               5.64948000    -25.17510000     15.78210000      0.24618600     -0.11764700     -0.04166840       1
O               3.04616000     19.18780000     -1.01906000     -0.04377330     -0.15878400      0.06981410       8
H               3.28076000     18.62000000      0.83471400      0.00642923      0.03271160     -0.04427990       1
H               3.41418000     20.65410000     -1.63952000      0.03966910      0.12527100     -0.02807320       1
O              -2.07175000      3.31199000     10.97210000     -0.00420892     -0.08827170      0.09665180       8
H              -1.68556000      3.76475000      9.40093000      0.02091730      0.04170790     -0.09537650       1
H              -1.38863000      1.51159000     11.01150000     -0.01947390      0.04447820      0.00556095       1
O             -36.14100000     53.39690000    -26.62670000      0.08462450      0.08297780      0.03583230       8
H             -35.14230000     55.15940000    -27.22920000     -0.05007890     -0.07186370      0.01278600       1
H             -34.82910000     53.23010000    -24.79190000     -0.03894630     -0.01655340     -0.06174660       1
O              10.18200000     56.43100000    -20.42830000     -0.02457060     -0.06265510      0.00334621       8
H              10.17490000     55.16470000    -18.96760000      0.01136260      0.03251910     -0.01658310       1
H               9.46076000     55.28240000    -21.75930000      0.01192780      0.02715200      0.01742270       1
O             -39.26290000     40.01730000      4.11131000     -0.02951420     -0.00301049      0.00284886       8
H             -38.46680000     39.35310000      2.58423000     -0.00470185     -0.00484436     -0.00081763       1
H             -41.15430000     39.96970000      3.87664000      0.03300550      0.00902988     -0.00441859       1
O              14.66690000     34.08400000     19.27440000      0.06280510     -0.01599750     -0.04357850       8
H              16.10890000     33.83630000     17.90500000     -0.02171890     -0.00902383      0.05494770       1
H              13.79390000     35.10710000     18.12940000     -0.03787930      0.02127860     -0.00687098       1
O             -15.23020000    -12.79130000      7.50074000     -0.00632364     -0.03673010     -0.02304920       8
H             -15.10950000    -11.29300000      6.51564000      0.00500576      0.00920837     -0.01488560       1
H             -15.38460000    -14.19860000      6.20113000      0.00793340      0.03369700      0.02719120       1
O             -47.99410000      3.58266000     16.56370000     -0.01335350      0.00242203     -0.00870504       8
H             -46.17720000      2.93233000     16.46940000     -0.04977700      0.00488101     -0.02125720       1
H             -49.23590000      3.67225000     15.08380000      0.05658010     -0.01093810      0.02758170       1
O             -20.81930000    -15.34460000     30.05690000      0.00671378     -0.04879680      0.04049980       8
H             -19.21360000    -16.18390000     30.95170000     -0.05552640      0.02641290     -0.02467720       1
H             -22.27110000    -16.64450000     30.26800000      0.03423320      0.02328940     -0.00727910       1
O              17.95600000     16.31540000     25.10900000      0.03406650      0.09246180      0.02414480       8
H              17.65030000     16.62300000     26.88920000     -0.00633438     -0.01357780     -0.00829134       1
H              17.52780000     14.76750000     24.52450000     -0.03009750     -0.06779320     -0.01389140       1
O             -20.07480000      1.28402000     32.45750000      0.00230908     -0.00165995      0.03111450       8
H             -18.14910000      1.22766000     32.40060000     -0.04380350     -0.02379050      0.00784660       1
H             -20.94790000     -0.13025100     33.65160000      0.03713590      0.02913590     -0.03319780       1
O              39.02120000      8.18225000     35.83800000      0.06435890     -0.03229460     -0.02378680       8
H              40.53980000      6.96842000     35.98420000     -0.04740930      0.02435630      0.01296470       1
H              39.65230000      9.04039000     34.30800000     -0.01404700      0.01033910      0.01040330       1
O              -4.06084000    -30.84860000     -7.76625000     -0.00343274      0.11873700      0.09462620       8
H              -3.16845000    -31.31090000     -6.20110000     -0.00202051      0.01408900     -0.00897427       1
H              -4.00869000    -32.25060000     -8.59816000      0.00436569     -0.13285000     -0.08453080       1
O              55.01200000    -18.18610000    -15.11600000     -0.09445040     -0.02212130      0.02274930       8
H              54.54930000    -16.98180000    -13.71860000      0.01326120     -0.01343450     -0.02242290       1
H              53.48650000    -19.57410000    -15.15390000      0.05555790      0.03406030      0.00085776       1
O               9.35023000     -1.89739000     15.75590000      0.09687460      0.05812650      0.01675590       8
H              10.71190000     -0.23505800     15.49390000     -0.06345140     -0.07189320      0.00842154       1
H              10.42470000     -2.67328000     17.17510000     -0.04134230      0.00832416     -0.03133890       1
O             -32.71230000     -3.84480000     47.05580000      0.01269850      0.02958090      0.04322430       8
H             -33.44730000     -4.35236000     45.52940000      0.00085213     -0.01567340     -0.03782210       1
H             -31.92490000     -5.26417000     47.87900000      0.00253708     -0.01389560     -0.00046231       1
O              10.96220000    -14.40790000     -9.60500000      0.03771470     -0.01706830      0.02162470       8
H               9.72656000    -14.18920000    -10.86820000     -0.01970770      0.00840975     -0.01758060       1
H              12.42050000    -15.25790000    -10.38680000     -0.01385580      0.01278070      0.00101042       1
O              21.28600000     18.40130000      7.73184000      0.00316153      0.08261120      0.00587994       8
H              21.61190000     18.79280000      9.48557000     -0.00638168      0.03516900      0.00177423       1
H              21.37640000     16.77490000      8.12391000     -0.00147182     -0.11796200     -0.00503280       1
O              15.22270000     19.40130000     -6.28304000      0.04981670     -0.02250390     -0.01975980       8
H              13.70660000     18.46580000     -6.43875000     -0.01438720     -0.01106090     -0.00251241       1
H              16.74450000     18.25730000     -6.77138000     -0.03836000      0.03410470      0.01058280       1
O              22.04520000     46.52450000     28.50120000     -0.07288540     -0.01578610     -0.02107120       8
H              22.32480000     45.28320000     29.71740000     -0.00004473     -0.03396450      0.02140750       1
H              23.49340000     47.40740000     28.45950000      0.07391040      0.04861030     -0.00615487       1
O              -9.23817000      8.64875000      3.68907000     -0.00312022     -0.01884000      0.05366040       8
H              -8.63146000      9.13845000      2.15009000      0.00454923      0.01926650     -0.05568220       1
H             -11.07000000      8.32759000      3.77755000      0.00629228      0.00503801     -0.00968457       1
O              16.66470000    -25.15910000     13.65420000     -0.03680060      0.02685990     -0.03334380       8
H              15.16000000    -24.44490000     12.60560000      0.03753770     -0.02407680      0.03341220       1
H              16.11770000    -25.87420000     15.23580000     -0.00897713      0.00159443     -0.00588852       1
O              -3.16788000     13.24080000     38.80390000      0.03014670      0.04179570     -0.04282640       8
H              -4.07971000     11.88100000     39.40250000     -0.02268330     -0.03647340      0.00873039       1
H              -2.96290000     13.10750000     36.81610000     -0.01799050      0.00008095      0.03989690       1
O              47.34940000     41.17370000     -2.62243000      0.01509170     -0.02397220     -0.05336950       8
H              48.99040000     41.93940000     -2.25923000     -0.01226220      0.01092750      0.02097770       1
H              45.84650000     41.38270000     -1.73496000     -0.01031300      0.02581890      0.03295580       1
O              24.47180000      8.37974000    -30.04730000      0.03644960      0.18903400      0.04988000       8
H              26.31130000      8.53875000    -29.77970000     -0.01736110      0.01513910     -0.00111286       1
H              24.36140000      6.83725000    -30.38150000     -0.01969110     -0.19500300     -0.04298400       1
O             -15.56280000     47.74500000      7.59126000     -0.08223130      0.00354017     -0.03562340       8
H             -14.05430000     48.26080000      8.12892000      0.08960520      0.02956830      0.03456430       1
H             -15.59000000     45.97910000      7.71070000      0.00239271     -0.02950300      0.00169508       1
O               7.90064000    -30.73520000     37.17030000      0.01051890      0.02982070      0.05178150       8
H               7.68904000    -31.87930000     38.70840000      0.00895656      0.02407420     -0.03357050       1
H               8.54715000    -28.96760000     37.91300000     -0.02095230     -0.05627270     -0.01924510       1
O              -0.47276200     29.45330000      6.24753000     -0.09122540      0.10932600     -0.00304766       8
H               0.26136100     28.04980000      5.81385000      0.06387980     -0.10911400     -0.03508250       1
H              -1.83523000     29.58060000      4.81505000      0.02600450      0.00977147      0.03470670       1
O              -8.50992000     -7.34129000      6.07425000     -0.04843030     -0.00169324      0.01403300       8
H             -10.29630000     -7.04589000      6.94981000      0.06789050      0.00316332     -0.01861640       1
H              -7.12282000     -6.39568000      6.79908000     -0.01495010      0.00249303      0.01012840       1
O              -5.03395000      8.69898000     16.82070000      0.04287710     -0.04702140     -0.01655770       8
H              -3.18630000      8.83277000     17.21940000     -0.03126490      0.00766475      0.00050394       1
H              -5.02565000      6.91836000     15.95820000     -0.01812640      0.04553220      0.01887220       1
O              20.42800000    -17.96730000      2.48582000     -0.05198520     -0.04065010     -0.08217300       8
H              21.04740000    -18.69780000      0.62829100     -0.02657790      0.03219650      0.07913660       1
H              18.35050000    -18.18930000      2.41779000      0.08234650      0.00455961      0.00593077       1
O              23.65960000      2.60459000     46.26220000      0.00269601      0.02244450     -0.07719560       8
H              22.09990000      1.96663000     46.86180000     -0.02065380     -0.00978782     -0.00009675       1
H              23.40380000      2.94054000     44.24030000      0.01520890     -0.01678500      0.07601370       1
O              19.27230000     24.53520000     48.46810000      0.05538910     -0.00666148      0.03532510       8
H              20.72150000     23.72350000     49.55050000     -0.05456440      0.01553190     -0.02886920       1
H              18.19250000     23.21120000     47.83140000     -0.00235878     -0.00997972     -0.00160480       1
O             -17.91400000     10.67900000     23.56780000      0.00885245     -0.01479910     -0.00044657       8
H             -17.22780000      8.97045000     23.93580000     -0.02546920      0.02391110     -0.00235304       1
H             -19.56890000     11.06010000     24.49140000      0.03316750     -0.01114420     -0.00710512       1
