192
TotEnergy=-1103.47931000 cutoff=-1.00000000 nneightol=1.20000000 pbc="T T T" Lattice="24.14986000       0.00000000       0.00000000      -0.00000100      24.14986000       0.00000000      -0.00000100      -0.00000100      24.14986000" Properties=species:S:1:pos:R:3:force:R:3:Z:I:1
O              21.76270000     -0.04011200    -28.31800000     -0.01392510     -0.01115910      0.00514972       8
H              22.59220000      0.32514300    -26.73650000     -0.00184223      0.00393222      0.00221103       1
H              20.07880000     -0.86642900    -28.05200000      0.03023030      0.01324620     -0.01014590       1
O              49.34440000     47.57190000      4.61035000     -0.02217830      0.00892622      0.12934700       8
H              50.72140000     46.74240000      5.63061000     -0.01561640      0.00463558     -0.01589900       1
H              49.87040000     47.31780000      3.05102000      0.02442560     -0.02032270     -0.10736300       1
O              11.37740000      0.22508000     13.81490000      0.02145010     -0.03886600      0.00424225       8
H              13.09780000     -0.29181800     13.11230000     -0.02705430      0.00693303      0.02317370       1
H              10.49640000     -1.36453000     14.32230000      0.01586800      0.02088050     -0.01123150       1
O              -5.83817000     -7.53969000      0.57058300      0.02940770      0.04553050     -0.01301890       8
H              -4.57579000     -6.35199000     -0.41461600     -0.04135080     -0.03619580      0.02934090       1
H              -7.14542000     -6.51101000      1.41311000      0.02322370     -0.00744326     -0.01929010       1
O               8.30940000     28.92270000     20.29400000      0.01364030      0.06298110      0.00137424       8
H               8.30461000     30.87580000     20.95250000      0.01369920     -0.07028410     -0.03060050       1
H               9.79611000     28.73880000     19.00710000     -0.03376970      0.01736100      0.04110510       1
O              -2.59821000     12.25010000     11.91220000      0.01164280     -0.00041518     -0.00681961       8
H              -3.37543000     11.66570000     10.32340000      0.01482740      0.00728423      0.01228350       1
H              -0.88372200     13.02180000     11.64170000     -0.02971720     -0.00255281     -0.01264440       1
O              44.48530000     25.29950000     11.32670000      0.05228180      0.02171790      0.08079410       8
H              45.92710000     25.33790000     12.98580000     -0.05358190     -0.00286290     -0.09238690       1
H              44.96110000     24.99280000      9.46422000     -0.00034251     -0.01149690      0.03090740       1
O              -1.72134000    -28.72390000     12.35050000      0.04261810     -0.02057400     -0.03593980       8
H              -0.48355400    -30.07600000     11.43720000     -0.03455900      0.03510020      0.02663820       1
H              -1.90300000    -27.34410000     11.11930000     -0.00409874     -0.01621610      0.01404990       1
O              29.32780000    -34.86130000     18.26100000     -0.00844104      0.05694690     -0.02113770       8
H              30.06790000    -36.02860000     19.48300000      0.02489290      0.02115850     -0.01168500       1
H              29.96590000    -32.86030000     18.05470000     -0.01214440     -0.06881800      0.02732850       1
O               8.02076000    -28.22190000    -25.26200000      0.01706310     -0.04655620      0.03399490       8
H               9.92718000    -28.59320000    -25.10160000     -0.05117930      0.01377790      0.00167435       1
H               7.07029000    -29.53620000    -23.99410000      0.03471420      0.03452710     -0.03856780       1
O             -11.73280000      2.60100000      5.57035000      0.03412950      0.05741680     -0.02937000       8
H             -13.19520000      2.24085000      4.63643000     -0.03518850     -0.01837150     -0.00297376       1
H             -11.15720000      4.06741000      4.38500000      0.00163109     -0.04629310      0.03793950       1
O              -9.48978000     29.83830000     49.84620000     -0.06588740     -0.08768770     -0.00725056       8
H              -8.98853000     29.33750000     48.19980000      0.00826333     -0.00461303     -0.01319380       1
H              -8.79157000     31.23020000     50.41160000      0.05975890      0.08990000      0.02623620       1
O              14.13610000    -29.08400000    -14.60760000      0.09049160     -0.01843070     -0.01062210       8
H              15.09780000    -30.75380000    -14.45260000     -0.02788590      0.02802090     -0.01137100       1
H              12.51000000    -29.11090000    -14.09600000     -0.06863290     -0.01322260      0.02187130       1
O              25.24540000     15.64240000     34.75010000      0.03137940     -0.02230920      0.01314390       8
H              25.61780000     15.07100000     33.02210000     -0.00441356      0.00714921      0.01221020       1
H              26.61670000     14.73800000     35.95270000     -0.02887390      0.01646340     -0.02676560       1
O               1.42987000      2.08652000     -0.90603100     -0.05849490      0.00782840      0.01803730       8
H               2.17278000      2.96605000     -2.22709000      0.01230670      0.02741460     -0.03785300       1
H               2.71915000      1.08019000     -0.34441400      0.03899970     -0.03189500      0.02085660       1
O             -27.95330000     22.92710000     31.55170000      0.06873250      0.00085657     -0.05179520       8
H             -26.27680000     22.98420000     30.28110000     -0.07327790     -0.00743086      0.03628030       1
H             -29.61000000     22.53070000     30.75610000      0.01641610      0.00703963     -0.00324428       1
O             -32.24900000     12.20520000     23.16710000      0.01870170      0.00133552      0.04237370       8
H             -32.89040000     11.64620000     21.62010000     -0.02579310     -0.01220990     -0.03646960       1
H             -30.88300000     13.28210000     22.68210000      0.00488020      0.01262840     -0.00044501       1
O             -15.96330000     61.18090000    -19.90570000     -0.00600154      0.03666940      0.06416410       8
H             -15.76740000     61.34690000    -17.95210000     -0.00016796     -0.01005510     -0.05162350       1
H             -15.21960000     59.64470000    -20.40730000      0.00845031     -0.02922930     -0.00654555       1
O              64.69260000     22.75870000     37.41740000     -0.04797220     -0.04097310      0.01466060       8
H              65.96920000     23.72890000     36.63730000      0.02573680      0.00281633     -0.02552470       1
H              64.24950000     21.11740000     36.59860000      0.02076170      0.03314780      0.00155218       1
O              55.59000000    -23.00690000      4.86182000     -0.04968010      0.03937330     -0.00600146       8
H              54.07250000    -22.03030000      5.64924000      0.04575720     -0.02738470     -0.02098550       1
H              55.27820000    -22.76860000      2.95708000      0.00980497     -0.00451259      0.02448200       1
O              31.89770000     18.37340000    -14.40990000      0.00910243     -0.00483274     -0.01398330       8
H              32.69520000     16.71390000    -14.79510000     -0.01294970      0.02175730      0.01428990       1
H              32.29960000     18.84470000    -12.65670000     -0.00077883     -0.01009870     -0.01057580       1
O             -10.53440000      7.15383000     60.90060000      0.01522940     -0.01576570     -0.02035980       8
H             -11.50770000      5.89725000     59.97240000     -0.01835900      0.00257475      0.00496994       1
H              -8.82907000      6.51723000     60.45840000     -0.00759063      0.01409130      0.01992480       1
O               7.04536000      1.15879000     -0.08788300     -0.00003340     -0.06326710     -0.06210570       8
H               7.00085000     -1.01154000     -0.71887000      0.01291530      0.08442710      0.02305460       1
H               7.52897000      2.26728000     -1.62422000     -0.00842133     -0.02898720      0.03989430       1
O              45.13310000      5.40377000     23.42730000      0.06395810      0.04067700      0.07455420       8
H              44.75380000      7.05484000     24.65440000      0.00528765     -0.06195490     -0.03941410       1
H              46.94010000      4.73970000     24.22550000     -0.07310020      0.01995200     -0.03919950       1
O              -3.63240000     62.35350000     28.90670000      0.06526710     -0.09643260      0.08452880       8
H              -4.05832000     63.38170000     27.68150000     -0.02699280      0.07626120     -0.09376550       1
H              -1.76377000     61.87090000     28.74010000     -0.03904370      0.02493940      0.00905033       1
O               8.84067000     37.61820000      9.73426000     -0.09232450      0.02303340     -0.04584790       8
H               7.26756000     37.43340000     10.70440000      0.02292310     -0.00174406     -0.00043029       1
H              10.24990000     37.17600000     10.57760000      0.06233710     -0.02771460      0.04095360       1
O             -17.99020000     18.57920000     18.14150000     -0.04020980      0.01253800     -0.00564607       8
H             -19.88950000     19.23210000     17.83740000      0.07071650     -0.01087500      0.02440220       1
H             -16.98280000     19.24450000     19.63440000     -0.03816490     -0.00446245     -0.01530810       1
O              34.32510000     32.56040000     50.19100000      0.06552790      0.00759823      0.00612504       8
H              35.81150000     31.39230000     50.49760000     -0.03805560      0.01979810     -0.01614190       1
H              32.76260000     31.77050000     50.38150000     -0.03425230     -0.02385230      0.00491662       1
O              13.44050000     35.25110000     19.11770000      0.01416220     -0.00667260     -0.03401530       8
H              13.72710000     36.44900000     17.61060000     -0.00929862     -0.03148700      0.02271680       1
H              13.66890000     33.40090000     18.66200000     -0.00966377      0.03866940     -0.00269135       1
O               2.09433000    -27.36750000     24.17710000      0.13535600     -0.00063971      0.11263100       8
H               1.13387000    -28.12860000     23.11100000     -0.09881450     -0.06188760     -0.10032700       1
H               3.19230000    -28.95110000     24.72110000     -0.03730570      0.05913470     -0.01034320       1
O               1.47056000     13.79000000      5.44121000     -0.04043360     -0.08209280      0.02755930       8
H               1.80605000     11.94540000      5.06710000     -0.01120000      0.03318600      0.01533820       1
H               2.71806000     14.56590000      4.59006000      0.05466950      0.04463160     -0.04379890       1
O               2.03256000      1.69003000     14.76230000     -0.01910570     -0.03793390      0.01879780       8
H               1.54413000      0.14742600     15.74170000      0.00958966      0.01430490     -0.02954490       1
H               2.38342000      2.68082000     16.23000000      0.00899650      0.02359100      0.01016200       1
O             -35.45750000     53.94970000    -30.16390000     -0.05921340      0.08073210      0.03282530       8
H             -35.88890000     53.53260000    -31.75410000     -0.00249496     -0.01851540     -0.07467770       1
H             -34.29760000     52.95380000    -29.44930000      0.06888070     -0.06054220      0.03436690       1
O               2.03303000     52.25780000    -17.96230000     -0.02720350     -0.03037570     -0.05400900       8
H               2.10225000     51.80290000    -16.29810000      0.01602200      0.00127006      0.06569900       1
H               1.25598000     50.54110000    -18.47030000      0.01641380      0.03468480     -0.01704620       1
O             -35.06400000     38.90600000      2.91869000      0.02737000     -0.00684680     -0.01491960       8
H             -33.86930000     38.04570000      1.70304000     -0.02896400      0.00875068      0.01214150       1
H             -36.74550000     38.22940000      2.71023000      0.00459524     -0.00258875      0.00213514       1
O              22.67530000     32.26610000     14.39480000     -0.01201210     -0.03374770      0.03200690       8
H              24.21380000     31.56430000     13.80560000      0.01654610     -0.00392853     -0.01211810       1
H              22.43550000     33.83030000     13.55530000     -0.00701896      0.02692780     -0.01654380       1
O             -13.96920000    -20.58890000     10.80850000     -0.00970160      0.01537490      0.02212660       8
H             -13.41060000    -21.13420000      9.20756000      0.00807441     -0.01075650     -0.02031410       1
H             -13.63740000    -21.95200000     12.14610000     -0.00546581      0.00773157     -0.02122990       1
O             -45.00310000      4.52848000     19.08950000      0.06766040      0.01310190      0.02554220       8
H             -45.53120000      6.23934000     18.82880000     -0.00454092      0.00190801      0.00223851       1
H             -43.00960000      4.80313000     19.82870000     -0.05798660     -0.01650520     -0.03708130       1
O             -21.47120000    -16.10720000     35.25770000      0.01209390     -0.03083680     -0.06637940       8
H             -20.57330000    -17.76260000     34.56400000     -0.01632300      0.03362550      0.03913020       1
H             -22.17130000    -15.57430000     33.55870000     -0.00021718     -0.00038742      0.03538020       1
O              16.37780000     14.81370000     32.03360000      0.05350630     -0.00682745     -0.06612510       8
H              18.31380000     14.61420000     31.49240000     -0.05539280      0.00449796      0.02242510       1
H              15.72500000     14.72120000     30.22120000     -0.00100755      0.00449655      0.04391930       1
O             -23.74900000     -3.34374000     41.53110000     -0.00543671     -0.00182087     -0.01971160       8
H             -24.40040000     -1.85626000     42.56560000     -0.01345000     -0.02246930     -0.02008140       1
H             -24.74730000     -3.76589000     39.93270000      0.01807040      0.02118370      0.03054880       1
O              43.08990000      9.14952000     32.03270000     -0.03417960     -0.04380280      0.00482792       8
H              42.53280000      9.04324000     30.19110000     -0.00155471     -0.00413730      0.04924230       1
H              42.26710000      7.71111000     33.40800000      0.03988630      0.04652430     -0.05536710       1
O             -10.65340000    -33.63410000     -9.29244000      0.04080790     -0.02650740     -0.05087500       8
H              -8.86795000    -32.93750000     -9.28376000     -0.03475390     -0.01129850     -0.00159617       1
H             -10.56360000    -34.97170000    -11.06540000     -0.00185753      0.03922660      0.05194470       1
O              53.16340000    -20.77950000    -13.49800000      0.05507570      0.02994380     -0.02177140       8
H              55.08990000    -20.21120000    -13.65510000     -0.04988250     -0.02867380      0.01343440       1
H              52.84200000    -21.41620000    -11.83290000     -0.00001782     -0.00328613      0.00607792       1
O              15.46370000     -2.12223000      5.62097000     -0.03082340     -0.05055420      0.04391750       8
H              14.23470000     -0.81228600      5.83691000      0.00197146      0.02106260     -0.00981043       1
H              14.65840000     -3.38303000      7.06374000      0.03593310      0.02931320     -0.03944040       1
O             -33.72120000     -6.01168000     44.23150000     -0.04210100      0.12940600      0.04695050       8
H             -33.13730000     -7.52051000     43.88160000      0.04576770     -0.10123400     -0.01379890       1
H             -33.50280000     -5.49298000     46.04910000     -0.00396972     -0.02331890     -0.03072570       1
O               3.83305000    -11.42250000    -10.83350000     -0.00044157     -0.00527767      0.02588760       8
H               3.84332000    -11.27410000     -8.89441000      0.01051470     -0.01019720     -0.03243920       1
H               3.49721000    -13.17120000    -11.41550000      0.00383248      0.01098510      0.00961088       1
O              19.00110000     16.22130000     14.36270000      0.03069810     -0.00321855     -0.00578057       8
H              20.24260000     17.61940000     14.34660000     -0.02294670     -0.00665732     -0.00263868       1
H              19.96930000     15.02300000     13.29390000     -0.01861430      0.00368155      0.00838142       1
O               9.57643000     19.03460000     -9.85970000      0.05036800      0.00121571     -0.03519820       8
H              10.88970000     17.72130000     -9.81822000     -0.00440503      0.00769644      0.00106922       1
H               8.57401000     18.65850000     -8.48783000     -0.03796960     -0.00685406      0.04219580       1
O              23.82720000     57.03560000     30.63190000     -0.09101870      0.18016100      0.02563380       8
H              21.80330000     57.06960000     30.88410000      0.05987410      0.00347254      0.00714233       1
H              24.13200000     55.48460000     30.42900000      0.04118490     -0.18220900     -0.02788030       1
O              -5.29945000      9.24912000      2.03432000      0.04310000      0.02053340      0.02554980       8
H              -4.16575000     10.70540000      2.53184000     -0.02562840     -0.02620750     -0.00516213       1
H              -6.20295000      9.94003000      0.63052900     -0.01745680      0.01403110     -0.01278350       1
O              17.19610000    -25.61720000     18.36520000     -0.03978650     -0.05047270      0.10559100       8
H              16.11170000    -27.16740000     19.11730000      0.03710310      0.04591980     -0.02843520       1
H              17.06190000    -25.87800000     16.66860000     -0.00472776     -0.00248603     -0.06923680       1
O              -1.63229000     17.97040000     45.36280000      0.02928760      0.06415220     -0.02339120       8
H              -1.91931000     16.52900000     44.45890000     -0.02610990     -0.07251710     -0.00681996       1
H              -1.04128000     18.78940000     43.69990000     -0.00442759      0.01314860      0.04225620       1
O              37.82110000     43.79960000      0.92224200     -0.02596610     -0.02942170     -0.04818970       8
H              38.54690000     44.55100000      2.26652000      0.03912810      0.06895250      0.05871930       1
H              37.43270000     42.33160000      1.88745000     -0.01805710     -0.03532290     -0.00631499       1
O              19.81590000     13.86660000    -28.63400000      0.01301520     -0.03167360     -0.07973720       8
H              20.63000000     12.19500000    -28.47020000     -0.00251124      0.00779776      0.00763998       1
H              19.80780000     13.77950000    -30.63900000     -0.00971151      0.01916160      0.06413160       1
O             -18.56610000     40.97470000      2.25015000      0.00677401      0.04480030      0.03554890       8
H             -17.72740000     39.57560000      2.96591000      0.01813270     -0.04962020     -0.01245180       1
H             -18.06400000     42.02130000      3.77450000     -0.02591880      0.01103580     -0.02920380       1
O               5.25488000    -27.39810000     29.81060000      0.01259660      0.00777639     -0.01683380       8
H               5.91053000    -28.04150000     31.33170000      0.00442769     -0.02125300      0.03479350       1
H               6.57033000    -26.08710000     29.50930000     -0.01760970      0.00466239     -0.00755422       1
O               5.17669000     32.03970000      1.83678000     -0.03743150     -0.00208680      0.00563696       8
H               4.04082000     31.50240000      3.34250000      0.02486860      0.01707010     -0.06152860       1
H               4.30468000     32.64670000      0.17000700      0.00637034     -0.01666820      0.05581980       1
O             -10.62530000    -12.38660000     10.72040000     -0.12752300     -0.03431370      0.12748800       8
H             -10.72340000    -14.16970000     11.13140000      0.01103670     -0.01448750      0.00164678       1
H              -9.55665000    -11.84690000      9.65245000      0.12153700      0.04962540     -0.11754900       1
O              -5.67558000      5.99237000     11.98870000      0.01616880     -0.01517000      0.00754489       8
H              -4.25445000      6.32547000     13.11420000     -0.00297929      0.03050670      0.00076380       1
H              -5.18018000      4.22288000     11.87010000     -0.01224670     -0.01678540     -0.02164240       1
O              26.88480000    -13.85380000     -2.26950000     -0.01831380     -0.01173940     -0.01114720       8
H              27.53340000    -12.34820000     -2.98920000      0.00962243      0.01804980      0.00303949       1
H              25.51230000    -14.12240000     -3.48837000     -0.00294185     -0.01148240      0.01446820       1
O              22.23810000      8.93928000     43.44310000      0.02051440      0.02163830     -0.06617860       8
H              21.53960000      8.01867000     44.78680000     -0.00906308     -0.03451920      0.00872910       1
H              22.27810000      8.21852000     41.52020000     -0.00612907      0.01549190      0.05763590       1
O              16.40080000     27.35720000     45.08730000      0.01064970      0.02141300      0.00719906       8
H              18.10170000     28.14960000     45.33260000     -0.02204710     -0.02980130     -0.00474806       1
H              16.43550000     25.58530000     44.57540000      0.01437050      0.01164410     -0.00255091       1
O             -15.43880000     10.73610000     21.04220000      0.00895471      0.00242654      0.01498710       8
H             -13.75520000     11.43640000     20.52580000     -0.01923320     -0.01760400      0.00482689       1
H             -15.35220000     10.38760000     22.85820000      0.00623608      0.00513442     -0.01491940       1
