192
Lattice="22.62918 0.0 0.0 0.0 22.62918 0.0 0.0 0.0 22.62918" Properties=species:S:1:pos:R:3:force:R:3 TotEnergy=-1103.75839 cutoff=-1.0 nneightol=1.2 pbc="T T T"
O       15.86370000      17.76900000       1.28008000      -0.00190973       0.00111997       0.00325574
H       15.59770000      17.49550000       3.05597000       0.00467078      -0.00574073      -0.00056414
H       16.21750000      16.04910000       0.66491500       0.00156092       0.00545009       0.00091873
O        0.51422300      10.79010000      11.67500000      -0.00232651       0.00646080       0.00586278
H        1.93875000      11.40720000      10.61710000       0.00101169       0.00332115      -0.00170569
H        1.01976000      11.16180000      13.40420000       0.00109206      -0.00365106      -0.00184569
O        9.79309000      10.59290000       2.63684000      -0.00984959      -0.00303157      -0.00162415
H        8.51109000      10.40720000       1.33842000       0.00715002      -0.00477975      -0.00036549
H       10.94300000       9.15588000       2.60018000      -0.00712480       0.00447639      -0.00786342
O       22.38570000       3.26235000      19.43400000       0.00256532      -0.00179035      -0.00217147
H       22.47160000       1.89209000      20.63510000      -0.00021310       0.00112542       0.00099045
H        1.30852000       3.20991000      18.45440000       0.00113164       0.00040565       0.00061556
O        8.27358000       0.05672000       1.45612000       0.00614072      -0.00086313       0.00339045
H        6.74145000      21.71200000       1.90052000      -0.00129709       0.00247292       0.00032554
H        9.20614000       0.11582000       3.02571000       0.00182118      -0.00130690      -0.00362394
O        4.14732000      16.15730000      13.22530000      -0.00687294      -0.00489469      -0.00378950
H        3.87840000      15.06870000      11.75210000       0.00943499      -0.00142368       0.00211100
H        4.35368000      15.01420000      14.62150000       0.00478660       0.00247801      -0.00378657
O       15.77520000      10.02540000      11.70390000      -0.00341909       0.00361471      -0.00088404
H       14.47240000      11.29990000      11.53730000       0.00325783      -0.00898934      -0.00161080
H       15.72040000       9.50106000      13.43360000       0.00078920       0.00099454      -0.00002026
O       21.83330000       0.97495800      11.12070000       0.00039252      -0.00609704      -0.00512213
H       21.70920000       0.95005500       9.30741000      -0.00238532       0.00094207       0.00427461
H       20.16860000       0.75339700      11.82080000       0.00041311       0.00310945      -0.00225268
O        4.36951000      22.45660000      10.54440000       0.00513540       0.00116504       0.00111110
H        3.91026000      22.06250000      12.25950000       0.00474278       0.00396532       0.00278275
H        6.17499000      22.28210000      10.42210000      -0.00316548       0.00092364       0.00185409
O       16.42360000       5.21572000      21.05350000       0.00197917       0.00057356      -0.00623110
H       15.95880000       3.72661000      21.95970000       0.00118233      -0.00929993       0.00443518
H       16.61770000       6.44852000      22.35070000       0.00401589       0.00525109       0.00732518
O       18.81390000      11.54390000      17.90160000      -0.01041110      -0.00516221      -0.00589983
H       19.68230000       9.88476000      17.62720000      -0.00886594       0.00592519       0.00357545
H       20.02670000      12.80290000      17.50180000       0.00792094       0.00436084       0.00110233
O        7.69775000      12.29740000      14.86790000      -0.00039434      -0.00280283       0.00457911
H        9.23667000      11.35990000      15.15430000      -0.00853150      -0.00216829      -0.00211095
H        6.63345000      11.74850000      16.28830000       0.01187630       0.00415347       0.00121295
O       13.41760000       0.33155900      16.10060000       0.00321810       0.00337467       0.00548052
H       12.67160000       0.96346400      14.52260000       0.00571565      -0.00115600      -0.00238495
H       13.24080000       1.68077000      17.30310000      -0.00697466      -0.00153186       0.00068446
O       11.05090000      21.60800000       6.10149000       0.00737591      -0.00413838       0.00202974
H       10.39610000       0.52282000       6.84536000      -0.00192308       0.00866669       0.00306369
H       12.75650000      21.41370000       6.80499000      -0.00815143       0.00258172      -0.00565443
O        1.97603000       5.84560000       3.52226000       0.00578230      -0.00244323      -0.00222387
H        2.55743000       4.14363000       4.25247000      -0.00527006       0.00592603       0.00998434
H        0.16856100       6.20808000       3.57712000       0.00657015      -0.00396893       0.00444522
O       18.99250000      21.17490000      19.57590000      -0.00064938       0.00213694      -0.00816052
H       17.29120000      21.66360000      19.95870000       0.00057258      -0.00344174      -0.00069858
H       18.98100000      20.20140000      18.02460000      -0.00359486      -0.00066950       0.00664166
O        9.53562000       6.74297000      11.22360000       0.00222136      -0.00374246       0.00053012
H        9.00860000       8.28978000      10.38890000      -0.00297734      -0.00255483      -0.00108468
H       10.09860000       7.04759000      12.93960000      -0.00283648       0.00333148      -0.00348813
O        0.15311300      18.78080000      13.43100000      -0.00720710      -0.01251120       0.00459273
H        1.84315000      17.96050000      13.32560000       0.00500083      -0.01290660       0.01158070
H        0.35509700      20.04110000      12.19970000      -0.01206290       0.02598000      -0.01626490
O        0.49430900       5.72834000      13.16340000       0.00041175       0.00150146      -0.00557966
H        0.63749400       7.30203000      12.19380000      -0.00305632      -0.00916374       0.00134215
H       22.32079200       4.39618000      12.18510000       0.00479659       0.00837350       0.00017892
O       12.53500000       2.12335000      11.67330000       0.00206942       0.00724765      -0.00335279
H       13.75070000       3.48659000      11.84630000      -0.00953657      -0.00501148      -0.00485344
H       13.18360000       1.13916000      10.28320000       0.00629198       0.00214547       0.00367887
O       22.43710000      22.09980000       0.37575800      -0.00594083       0.00349434      -0.00006669
H       21.19500000      21.35280000      21.84369800       0.00258990       0.00140790       0.00142089
H       21.43330000       0.18462000       1.72041000       0.00005718      -0.00608253      -0.00101857
O       16.64480000      12.72990000      22.42530000       0.00107892       0.00524192      -0.00471490
H       15.02010000      12.49080000      21.62590000      -0.00222463       0.00395350       0.00343338
H       17.85040000      12.56510000      21.05220000      -0.00175803      -0.00185471      -0.00081340
O       20.74280000       7.22287000      17.32920000       0.00254229      -0.00008317      -0.00145625
H       20.95570000       6.00083000      18.69920000       0.00245040       0.00012619      -0.00276698
H       21.65640000       6.55742000      15.85990000      -0.00217022      -0.00133914      -0.00109296
O        2.90334000       1.91238000       6.15059000      -0.00028172       0.00053628      -0.00275156
H        3.34189000       0.30309900       5.37071000       0.00052056      -0.00048416       0.00307276
H        3.63736000       1.88584000       7.85249000      -0.00496266       0.00085094      -0.00933300
O       17.75690000       4.94566000      10.31280000      -0.00156288       0.00612665      -0.00022478
H       17.88440000       4.18541000      11.98270000       0.00123315       0.00402845       0.00094877
H       17.65020000       6.75830000      10.53800000      -0.00443739      -0.00886634       0.00133967
O       11.71580000      13.46700000      20.26440000      -0.00516858       0.00361295       0.00582312
H       10.02740000      12.64430000      20.32350000      -0.00112616       0.00779201      -0.00340389
H       11.45690000      15.11510000      21.02540000      -0.00235033      -0.00769284      -0.00747768
O       11.49670000       8.10273000      15.79720000      -0.00006095       0.00663450       0.00132789
H       12.54640000       9.59465000      15.50020000      -0.00603099      -0.00777677       0.01043620
H       11.06110000       8.11070000      17.60510000       0.00913356      -0.00000494      -0.00977054
O       17.99180000      16.92120000      16.91190000      -0.00283773      -0.00409281      -0.00262357
H       17.65300000      15.79370000      15.53270000       0.00245428       0.00366266       0.00082367
H       16.28440000      17.28460000      17.58250000       0.00121612       0.00142423      -0.00192155
O        2.69146000      17.89580000       8.21093000      -0.00155994      -0.00302326      -0.00290676
H        2.42724000      19.55680000       8.88643000       0.00629853      -0.00017619      -0.00584531
H        5.96513000      17.72910000       6.96375000       0.00181646       0.00833935      -0.00096328
O       16.36770000      14.49080000       5.27385000      -0.00199938       0.01053400       0.00526837
H       18.04500000      14.16200000       4.61235000      -0.00386427      -0.00592932       0.00231788
H       16.51590000      16.21640000       7.95777000       0.00240034      -0.00451815      -0.01951280
O        9.65374000       2.83500000      19.61500000      -0.00315332       0.00160360       0.00079842
H        8.42493000       4.13836000      19.22580000       0.00377460       0.00004160       0.00502772
H        8.67936000       1.60744000      20.54790000       0.00334961       0.00327638      -0.00136984
O       13.49980000      18.46470000      17.86790000       0.00211107       0.00009400      -0.00513124
H       13.46230000      20.07680000      16.92330000      -0.00022622      -0.00238722       0.00641072
H       12.93960000      18.90380000      19.56640000      -0.00421580       0.00053133       0.00224906
O        5.42114000       6.11971000      20.39710000       0.00164974      -0.00222955       0.00186042
H        4.71319000       5.96122000      18.72570000      -0.00041931      -0.00217750       0.00216249
H        4.65739000       7.59160000      21.18980000       0.00199816       0.00028148      -0.00224917
O        8.62055000      17.36040000      16.65160000      -0.00373838      -0.00228270      -0.00460947
H        8.31882000      15.59370000      16.23440000       0.00429664       0.00349422       0.00238954
H       10.39610000      17.59540000      17.05400000      -0.00194734      -0.00549032       0.00266082
O       18.98060000      10.96710000       8.04233000       0.00730126      -0.00109451       0.00214767
H       18.21180000      10.80610000       9.70265000      -0.00334459      -0.00372306      -0.00401210
H       20.74880000      10.71140000       8.31373000       0.00283576       0.00030495       0.00073525
O       16.47370000      17.12420000       9.56090000      -0.01149430      -0.00000655       0.00487431
H       18.52980000      16.06420000      10.83980000      -0.01836460       0.00471690      -0.01388490
H       14.82580000      16.68160000      10.24590000      -0.00120005       0.00514483       0.00635247
O        4.11339000      12.74200000       9.02473000       0.00556996      -0.00222889      -0.00314687
H        5.68372000      11.46850000       8.45545000       0.00198050       0.00429738       0.00461254
H        4.48437000      14.29240000       8.16592000      -0.00776392      -0.00332001       0.00049225
O        7.71526000      10.15950000       7.75855000       0.00664043       0.00511449      -0.00215819
H        7.56472000       9.95526000       5.96473000       0.00108215      -0.00399226       0.00194060
H       10.11640000      11.69660000       7.78930000       0.00399306       0.00926806       0.00474349
O       19.84470000      15.42810000      12.02560000       0.04028540      -0.00831038       0.03001450
H       21.08930000      16.96620000      12.67770000       0.00208672       0.00174839      -0.00468165
H       20.89780000      14.03480000      11.43550000      -0.00325698      -0.00268438      -0.00326708
O       11.67490000      12.98350000       7.90518000      -0.00493897      -0.00519585       0.00225088
H       11.19250000      14.16380000       9.22182000       0.00082878      -0.00357124      -0.00509588
H       15.64670000      12.95600000       5.93689000       0.00599120       0.00059351      -0.00576118
O        0.49999500      16.40230000      18.02410000      -0.00068895      -0.00084339       0.00594546
H        0.33298600      15.48470000      16.46910000      -0.00047638       0.00366014       0.00806558
H       21.45396000      16.94000000      18.51730000       0.00247742      -0.00494496      -0.00849958
O       17.53950000       8.94376000       3.41958000       0.01663230       0.00426713       0.00709928
H       18.35730000      10.03150000       2.16722000      -0.00620146      -0.00309316       0.00834880
H       18.21600000       9.61398000       5.02251000      -0.00936621      -0.00001975      -0.01021170
O       10.62170000      14.99970000       3.59308000       0.00685973      -0.00592975       0.00273941
H       11.52940000      14.56850000       5.20533000       0.00308059      -0.00446712       0.00659553
H       10.24120000      13.06340000       3.05574000       0.00011347       0.00351935      -0.00387801
O       19.28080000       0.05060100       4.64767000       0.00324905       0.00040149       0.00064419
H       20.11990000       1.59812000       5.20546000      -0.00993790       0.00317801      -0.00809783
H       17.93000000       0.63019700       3.56464000       0.00201007       0.00349646       0.00380840
O       18.08510000       2.69180000      15.00830000       0.00554437      -0.00398672      -0.00201314
H       17.34530000       1.12113000      15.55690000      -0.00472833       0.00750778       0.00105440
H       18.98580000       3.38339000      16.44010000      -0.00215565      -0.00445919      -0.00281525
O       14.98020000       0.63852000       0.87632200       0.00165433      -0.01266020      -0.00059442
H       15.34880000      21.50460000       1.20503000       0.00650241      -0.00276591      -0.00286318
H       13.36720000       0.43442000       0.08419000      -0.00814048       0.00798833      -0.00076294
O        7.74503000      17.63320000       6.49982000      -0.00173794      -0.00460159       0.00042046
H        9.12930000      15.79860000       4.40385000      -0.00845499       0.00672109      -0.00140233
H        8.53533000      19.29350000       6.45033000      -0.00181602      -0.00448454       0.00037163
O       10.87520000       5.06216000       2.24570000       0.00066793       0.00483674      -0.00146619
H       11.07240000       3.97467000       3.67931000      -0.00311552      -0.00176446      -0.00358691
H        9.94894000       4.20978000       0.91360700       0.00360943       0.00027528       0.00954263
O        8.95197000       3.32742000       7.71734000       0.04391690      -0.05253790       0.04592640
H        9.42952000       4.31024000       9.24916000       0.00059665      -0.00148326      -0.00184352
H        7.98201000       4.40874000       6.85761000      -0.04842730       0.05326210      -0.04518410
O       11.21100000      19.11920000      22.14128800      -0.00251119       0.00139771       0.00333711
H       10.02170000      20.40700000       0.13624800       0.00067752      -0.00659294      -0.00016549
H       12.17660000      18.47810000       0.91765400      -0.00072966       0.00224850      -0.00223328
O        5.65782000      21.34400000      15.92650000       0.00424875       0.00278067      -0.00170267
H        7.11666000      21.27140000      14.85130000       0.00126450       0.00055673       0.00195155
H        6.10460000      19.98950000      17.07470000      -0.00279745      -0.00313397      -0.00257920
O       19.96050000       4.94521000       5.71367000       0.00012767       0.00166033       0.00405956
H       18.95700000       6.26364000       4.90739000      -0.00344532      -0.00302208      -0.00766018
H       19.19800000       4.78041000       7.39878000       0.00520128       0.00328290      -0.00071384
O       14.10050000      12.69260000      15.76910000       0.00036236       0.00169311       0.00400244
H       15.79560000      12.27710000      16.40630000      -0.00501998       0.00300227       0.00177983
H       13.12970000      13.19640000      17.27180000       0.00407251       0.00120121       0.00103176
O        4.04325000      20.82640000       2.76270000      -0.00212827       0.00511988      -0.00254703
H        3.55274000      19.29490000       1.82103000       0.00139094      -0.00232882       0.00202390
H        3.16123000      22.12820000       1.82823000      -0.00358685      -0.00942254      -0.00332709
O        6.52958000      12.43290000      19.97990000      -0.00563503       0.00522800       0.00279726
H        4.82713000      11.10350000      21.89090000       0.00286200      -0.00239414       0.00040043
H        6.09799000      14.20980000      19.98560000       0.00808998      -0.00707294       0.00174753
O        4.05766000       3.52421000      16.35280000       0.00014148      -0.00050321       0.00399705
H        3.34757000       3.68875000      14.67960000       0.00533211      -0.00152536       0.00387527
H        5.06306000       1.98528000      16.56480000      -0.01072950       0.00449388      -0.01125750
O        3.78370000       9.99749000       0.48305000      -0.00591380       0.00179766       0.00499973
H        2.98553000       6.74351000       2.25418000      -0.00153616       0.00940173      -0.00510088
H        2.32636000      11.04730000       1.10858000      -0.00153010      -0.00317475       0.00420184
O       15.75810000      22.05090000       8.46085000       0.00114050      -0.00078160       0.00668369
H       16.31060000      20.53240000       9.32702000      -0.00448823      -0.00092933      -0.00654949
H       17.10310000      22.42710000       7.28064000      -0.00056546      -0.00068281      -0.00369495
O       12.15850000       8.22099000      20.90570000       0.00396115       0.00383046      -0.00407062
H       12.76480000       6.52391000      21.17110000      -0.00272558       0.00123860      -0.00122285
H       13.70540000       9.10792000      20.53470000      -0.00767230      -0.00178733       0.00109526
O        3.39772000      16.92770000      22.15460000       0.00378712      -0.00429392       0.00081189
H        2.59682000      17.14540000      20.51170000       0.00013663      -0.00613934       0.00701320
H        3.24472000      15.14030000      22.55240000      -0.00518988       0.01246050       0.00087765
O        1.56141000      11.21630000      16.90800000       0.00413717       0.00109740       0.00115451
H        0.90778700       9.57598000      17.40310000       0.00226003       0.00571485       0.00260921
H        2.59092000      11.83960000      18.29620000       0.00070716      -0.00640194      -0.00493790
O       11.69290000      16.59680000      12.01640000       0.00301392      -0.00247746      -0.00661924
H       11.73080000      15.39990000      13.38580000      -0.00102530       0.00444440       0.00128511
H       10.03020000      17.33310000      11.99970000       0.00229420      -0.00394277       0.00480189
O       22.07423600      17.37830000       4.50696000      -0.00301750       0.00185731      -0.00163163
H        1.51388000      17.65460000       6.76639000      -0.00101987       0.00367156       0.00223015
H       21.80580600      18.90670000       3.55676000       0.00123510      -0.00787425      -0.00177189
O       22.52750000      12.59020000       2.65009000       0.00333054       0.00376220      -0.00210147
H        0.48252000      12.30200000       4.34323000       0.00115772      -0.00097955      -0.00068623
H       22.40330000      15.92400000       3.35186000      -0.00441625      -0.00519438       0.00160264
