192
TotEnergy=-1102.86807000 cutoff=-1.00000000 nneightol=1.20000000 pbc="T T T" Lattice="25.13302000       0.00000000       0.00000000      -0.00000100      25.13302000       0.00000000      -0.00000100      -0.00000100      25.13302000" Properties=species:S:1:pos:R:3:force:R:3:Z:I:1
O               7.13790000     13.95930000     18.03880000      0.02577970     -0.02069420     -0.06855010       8
H               6.26343000     15.43370000     18.27990000     -0.02697300      0.04377140      0.01296090       1
H               7.13922000     13.06500000     19.51660000      0.00156815     -0.02775800      0.05286660       1
O              19.86030000      6.91606000      0.70876400      0.01427850     -0.06619820     -0.04085340       8
H              20.33740000      8.53802000      0.80692300      0.02200050      0.07557800      0.01490760       1
H              18.61770000      6.50977000      1.85172000     -0.03154340     -0.00461616      0.03012650       1
O               4.34279000     25.24790000      8.73716000     -0.10559300      0.04109110     -0.01043240       8
H               4.59752000     25.20630000      6.99352000      0.02363790     -0.00806702     -0.01642270       1
H               5.56683000     24.72430000      9.76946000      0.07223100     -0.03133020      0.03357130       1
O               5.53046000     19.67700000     24.90340000     -0.06695050     -0.01359680      0.00775725       8
H               4.61536000     18.02750000     24.67930000      0.01368350      0.02773880      0.00829756       1
H               7.22332000     19.33030000     24.71370000      0.05255800     -0.01839360     -0.01658680       1
O               8.70516000      8.81586000     15.67010000     -0.02819280      0.05083250     -0.01172010       8
H               8.58741000      8.63665000     13.80850000     -0.00214345      0.00279388      0.02395170       1
H               7.95279000     10.60890000     15.97830000      0.02348500     -0.04999650     -0.00981732       1
O               1.69964000      4.96866000      9.44484000     -0.12404800      0.00279981      0.02865850       8
H               2.72554000      6.23628000      9.12006000      0.07963250      0.07329220     -0.01802150       1
H               2.32792000      3.40425000      9.40258000      0.04968100     -0.07532870     -0.00559124       1
O               6.49424000     14.90750000      3.59064000      0.00840069     -0.03155800     -0.00625099       8
H               5.19471000     15.86910000      2.93049000     -0.05586900     -0.00820537     -0.05313850       1
H               6.68554000     16.31910000      4.59014000      0.05216200      0.03216320      0.05961980       1
O              12.73240000      8.21494000      3.08240000      0.10139900     -0.05578160     -0.00157025       8
H              11.30910000      7.95682000      2.26806000     -0.09181930     -0.03242570     -0.06555270       1
H              12.23030000      9.54289000      3.97233000     -0.00759490      0.08759270      0.06869050       1
O              12.73550000     15.76530000     20.33840000      0.00555156      0.01654260      0.00794133       8
H              14.31180000     16.45360000     20.86300000      0.00897550      0.04489280      0.00430300       1
H              13.64610000     14.27160000     20.16330000     -0.00948993     -0.06328160     -0.01274000       1
O              20.25060000     22.08150000     10.85430000     -0.06989600     -0.00111920      0.09362160       8
H              21.56870000     23.08460000     11.16750000      0.06923060      0.04003410     -0.00784146       1
H              20.00070000     21.22710000      9.44505000      0.00375271     -0.03727080     -0.08757000       1
O              14.39330000      4.43879000      9.51607000      0.04330770     -0.01755430     -0.07141790       8
H              12.73650000      4.52283000      8.94651000     -0.04493420      0.01779100     -0.00950664       1
H              14.31900000      4.42806000     11.20430000     -0.00174885      0.00158130      0.08404640       1
O              24.75460000     10.76800000      1.68778000     -0.00114581      0.04037070      0.05414050       8
H              25.61300000      9.23502000      2.14802000      0.00009169      0.00006026     -0.00473130       1
H              24.82680000     11.85590000      3.39385000      0.00137018     -0.03581220     -0.05041640       1
O              20.04060000     16.27230000      8.40861000     -0.04094880     -0.04322830      0.03189720       8
H              21.45190000     17.12670000      7.98194000      0.06043010      0.04896350     -0.06929020       1
H              20.86500000     16.04650000     10.02350000     -0.02951120     -0.02357850      0.02743730       1
O               3.44367000      0.02204000     18.48250000     -0.01592030     -0.09142970     -0.07673970       8
H               2.71513000     -0.61233300     19.91360000     -0.01007780     -0.00188743      0.05335550       1
H               4.12766000      1.53821000     18.39870000      0.03102830      0.10077400      0.01840580       1
O               7.21501000     11.25140000     22.65110000     -0.01547600      0.05588830     -0.13653900       8
H               7.47476000      9.64935000     22.88820000      0.02131270     -0.11763200      0.03248990       1
H               7.12364000     12.22540000     23.96820000     -0.00489146      0.06212470      0.10629900       1
O               1.31500000     13.90960000     11.50980000      0.03502740     -0.00515095     -0.07411070       8
H               0.49512000     12.95050000     12.70300000     -0.03085600     -0.01422720      0.04649990       1
H               1.29953000     15.64780000     11.78690000     -0.00341616      0.02708910      0.02036740       1
O               6.87824000     16.67190000     12.64740000      0.02986500      0.09891260     -0.07614840       8
H               7.02632000     16.23510000     14.23040000      0.00811178     -0.03677940      0.11062600       1
H               6.12736000     15.44990000     11.75830000     -0.03690920     -0.06423160     -0.03660150       1
O              14.76360000     18.71700000      8.14759000     -0.09947450     -0.00700838     -0.01116260       8
H              16.05430000     17.64970000      8.06504000      0.08118480     -0.02402430      0.00522570       1
H              14.49700000     20.43580000      8.34133000      0.02209170      0.03264990      0.00853002       1
O              21.46750000     20.19100000     16.99150000     -0.04678290     -0.03953140     -0.01897440       8
H              22.55260000     21.46960000     16.60900000      0.04410970      0.04259400     -0.01633480       1
H              21.58620000     19.92130000     18.73240000      0.01181030     -0.00491842      0.03240780       1
O               8.43844000     20.10240000      5.16179000     -0.08020000     -0.06237520     -0.12370300       8
H               8.24279000     20.22550000      2.71773000     -0.00034514     -0.01347360      0.11360100       1
H               9.65209000     21.25230000      5.14586000      0.08151800      0.07127220      0.00994140       1
O               7.56865000     21.40620000      9.93429000      0.01976980      0.07959210      0.02078840       8
H               7.78080000     20.46710000      8.52832000      0.01296980     -0.03086120     -0.07195910       1
H               6.92013000     20.23080000     10.97470000     -0.02208150     -0.05221030      0.06456060       1
O              -0.00437600     13.71350000      6.08124000      0.01199060     -0.08129580      0.08696980       8
H               0.26862500     15.36410000      5.88353000      0.00759561      0.09400010     -0.02732450       1
H               0.66401600     13.63090000      8.00889000     -0.02265510     -0.01403010     -0.05455270       1
O              14.55140000     15.73840000     15.08310000     -0.01949820     -0.05679950      0.02542440       8
H              14.83490000     17.35870000     14.54200000      0.00304693      0.05497620     -0.01457060       1
H              13.24710000     15.69370000     16.39230000      0.01261200      0.01090280     -0.00904648       1
O              16.57060000     19.97010000     19.64070000     -0.07564490     -0.02575150      0.07909220       8
H              15.95450000     20.42140000     18.11690000     -0.02006800      0.01956890     -0.07001440       1
H              18.24340000     20.07270000     19.63270000      0.08661240      0.00705637     -0.00443463       1
O               0.04857400     23.31950000     14.95600000      0.08186900     -0.05161760     -0.01302270       8
H              -0.76385800     24.76740000     15.24810000     -0.04392540      0.07868740      0.01420360       1
H               1.86380000     23.85290000     15.36770000     -0.04239380     -0.01748930      0.00162166       1
O              13.38080000     12.73490000      6.51656000     -0.00335568     -0.14832600     -0.06441050       8
H              16.39180000     11.12770000      6.60835000     -0.00472665      0.02287750      0.00359060       1
H              13.75100000     14.13240000      7.26371000      0.02541190      0.12172700      0.06471280       1
O              18.40440000     11.27310000      7.14352000     -0.04083330      0.11896800      0.01604240       8
H              19.71440000     10.21320000      6.78893000      0.03987850     -0.04281840     -0.02014890       1
H              19.12820000     13.48670000      7.15320000     -0.01747590     -0.06184000      0.01027040       1
O               2.59453000     23.76550000     23.40510000      0.12030300     -0.01476730      0.00099588       8
H               1.04107000     23.77180000     24.01440000     -0.09161000      0.00109922      0.04191800       1
H               3.76863000     22.99620000     24.75770000     -0.03472050      0.01418150     -0.04180940       1
O              15.26860000     11.00400000     13.54830000      0.00806332     -0.01099650      0.06096880       8
H              15.47300000     10.55380000     11.90650000      0.00059474     -0.00959788     -0.05882220       1
H              14.48430000     12.60460000     13.74200000     -0.00440117      0.01932470     -0.01080520       1
O               7.30349000      1.35861000      4.73198000      0.01923840     -0.01557730      0.03104410       8
H               8.96915000      1.09660000      4.12071000      0.02601750     -0.02060900      0.00582792       1
H               6.78012000      2.29591000      3.38476000     -0.03544810      0.04032970     -0.04392220       1
O              16.14350000     21.23910000     14.11060000     -0.11449100     -0.00283064      0.02059780       8
H              15.13120000     22.20210000     12.85760000      0.01477110     -0.01173830      0.01297610       1
H              17.75800000     21.43200000     13.71330000      0.09411310      0.01165250     -0.02796570       1
O              23.85480000      6.05026000     13.93600000     -0.01202460     -0.02539930      0.01522200       8
H              23.83120000      7.77176000     13.69960000     -0.01208350      0.05219530      0.00560781       1
H              25.07600000      5.70850000     12.69440000      0.02200780     -0.02582860     -0.02370670       1
O               4.21867000      5.53675000     18.04070000      0.11798600      0.00670426     -0.11897500       8
H               3.30390000      6.08550000     19.30740000     -0.06066220      0.04622390      0.08446550       1
H               5.49521000      6.98648000     17.33200000     -0.05025860     -0.05531690      0.03181610       1
O               1.18371000     16.99460000     16.77350000      0.07871420     -0.05902030      0.06301660       8
H               1.95079000     18.12460000     17.99240000     -0.00335067     -0.00069603     -0.01611050       1
H              -0.04441600     17.71930000     15.92240000     -0.07533870      0.05702030     -0.04794530       1
O              24.52480000     19.33690000      6.03817000     -0.03814370     -0.12480500     -0.01157410       8
H              25.24470000     19.64410000      7.52775000      0.03964510      0.03289540      0.07327140       1
H              24.43240000     20.60620000      4.97128000     -0.00197216      0.09105040     -0.05492290       1
O              16.08530000     17.68620000      2.22382000      0.07990600     -0.07382950     -0.08422990       8
H              15.69840000     17.49820000      3.81450000     -0.03366150     -0.01713790      0.11752000       1
H              15.35160000     19.09300000      1.73546000     -0.04594380      0.09103830     -0.03183530       1
O              14.88570000      4.19441000     17.20100000     -0.03312210      0.07032780     -0.01424860       8
H              16.33320000      3.25747000     17.48470000      0.04387220     -0.01015930      0.00316224       1
H              15.31270000      6.07506000     16.95750000     -0.00622785     -0.06041040      0.00835108       1
O              13.06770000     23.47860000     10.37870000      0.09286350      0.09924170     -0.04291210       8
H              11.40000000     23.13430000     10.51700000     -0.07662480     -0.00695138      0.00167870       1
H              13.34760000     25.48000000      9.59880000     -0.01705550     -0.09227820      0.03950790       1
O              18.21790000      7.60442000     20.83890000     -0.02770240     -0.03232040     -0.13563000       8
H              18.55080000      7.99655000     22.41090000      0.00535929      0.02490390      0.10989900       1
H              16.52660000      7.99206000     20.13830000      0.02235280      0.00906554      0.02543270       1
O              20.95350000      0.37326100     22.84260000      0.02818200      0.07150310     -0.03010090       8
H              20.57980000     -1.09386000     22.06440000     -0.02616160     -0.07289630     -0.02316290       1
H              21.11400000      1.39313000     21.23400000     -0.00033193     -0.00009919      0.03888160       1
O              23.80270000     -0.23448500      5.73124000     -0.09173360     -0.01896140     -0.01908340       8
H              24.29050000      1.24689000      6.50093000      0.02259090      0.03799930      0.02143940       1
H              21.79350000      0.21098600      5.46529000      0.07649970     -0.02075330     -0.00903713       1
O               7.97372000     10.71260000      6.33394000     -0.13045000      0.00344583     -0.06188800       8
H               9.32098000     11.65950000      6.72229000      0.08804390      0.05120350      0.02347130       1
H               6.84977000     12.13530000      5.02444000      0.04200890     -0.04741700      0.04961820       1
O              15.60630000      3.67961000      4.24035000      0.05150840     -0.06648670      0.03838530       8
H              15.65110000      3.88726000      6.06131000      0.00296681     -0.00313725     -0.00298335       1
H              14.63870000      4.96550000      3.73413000     -0.05443780      0.07333590     -0.03122200       1
O               7.68826000      5.57664000     24.52840000      0.07623660      0.00182560      0.08183960       8
H               9.14017000      4.75378000     23.86660000     -0.01297980     -0.00279576     -0.02357550       1
H               6.26570000      5.84770000     23.65920000     -0.06488530     -0.00349552     -0.05728830       1
O               2.15682000      5.71917000     23.89340000      0.07804860     -0.07743860      0.06731730       8
H               1.68218000      3.99925000     24.55700000     -0.00222175      0.04705810     -0.02524100       1
H               1.00350000      6.61067000     23.05300000     -0.07524540      0.03457250     -0.04436050       1
O              22.17050000     19.91060000     22.29650000     -0.01436200      0.03532040     -0.08233860       8
H              22.58860000     21.37870000     23.14680000      0.01234730      0.00169735      0.03730170       1
H              22.04100000     18.24340000     22.75510000     -0.00067922     -0.03918550      0.04811160       1
O               5.47165000     19.01050000     19.12500000     -0.03479760     -0.01153500      0.03250840       8
H               5.01719000     19.99870000     20.64860000      0.02404940     -0.00481983     -0.02876610       1
H               6.81886000     19.59860000     18.09830000      0.01326270      0.02266200      0.00260369       1
O              20.44830000      3.91599000     17.60410000      0.00378759     -0.08219010     -0.01444020       8
H              21.13630000      4.40037000     16.05100000      0.02389750     -0.00569115     -0.03333610       1
H              20.07970000      5.45725000     18.16870000     -0.02748240      0.07987520      0.05193790       1
O              10.55450000     18.57330000     24.52560000     -0.05485990     -0.04499410      0.02798650       8
H              11.33930000     20.04550000     24.39310000      0.03632130      0.09909770      0.00167379       1
H              11.64690000     17.64540000     23.53460000      0.01433260     -0.04801560     -0.02874170       1
O              20.09820000     15.63310000     14.61150000      0.04491650     -0.08825460     -0.03727220       8
H              18.44310000     15.13710000     14.69210000     -0.05331430      0.00196988      0.00910516       1
H              20.53910000     17.21470000     14.98760000      0.00402152      0.08801220      0.02814620       1
O               1.66181000     19.67170000     11.38550000     -0.03207450      0.00250599      0.00162479       8
H               1.31337000     21.43890000     11.43910000     -0.04007120      0.01425310      0.02502350       1
H               3.09972000     20.17930000     10.57200000      0.07044190     -0.01785780     -0.03338770       1
O               7.61959000      1.37458000     14.23280000      0.09073840     -0.05714880     -0.03897810       8
H               7.09500000      2.89734000     13.79580000     -0.03195310      0.09322860     -0.02710320       1
H               6.60237000      0.79863800     15.43140000     -0.05805900     -0.03549020      0.06609840       1
O              10.81960000      2.22539000     19.50750000      0.03539880     -0.01938580      0.11454600       8
H              10.12890000      2.31143000     17.99390000     -0.03985710      0.00884739     -0.09806840       1
H              12.49480000      2.91256000     19.41690000      0.00146531      0.00869664     -0.01524690       1
O               9.37254000      5.79817000      8.84665000     -0.03067890     -0.07388360     -0.06295480       8
H               8.45244000      7.29254000      8.22176000      0.01091270     -0.02605770      0.00152805       1
H               8.74238000      4.00612000      7.44391000      0.01659840      0.08609640      0.05915220       1
O               2.79057000     15.19970000     24.05570000      0.06828340      0.08977070      0.05549110       8
H               1.76373000     14.03080000     24.64440000     -0.06651060     -0.08255090      0.01518540       1
H               3.16756000     15.50430000     22.43130000     -0.00118350     -0.01067010     -0.07568970       1
O               9.84372000     21.54270000     16.60980000     -0.03019910     -0.02416490      0.02531070       8
H              10.59830000     21.27530000     15.00910000      0.01383730      0.01959690     -0.00001001       1
H              10.25190000     22.90410000     17.73820000      0.01381710      0.00218893     -0.02311890       1
O              20.63440000     15.61770000     -0.09944700     -0.02618320      0.08026720     -0.09181700       8
H              19.40000000     16.16150000      0.97476500     -0.04100070      0.01156880      0.04080010       1
H              21.62280000     14.40590000      0.39288700      0.06780030     -0.09405000      0.04792200       1
O              14.18190000     10.04960000     18.39470000      0.05891760      0.01748160      0.10252100       8
H              14.98140000     10.43190000     16.94730000      0.02493310      0.01342160     -0.07732660       1
H              12.67670000      9.34085000     18.21680000     -0.08862050     -0.03511200     -0.02512510       1
O              19.90130000      1.03655000      2.52277000      0.02406900     -0.02649840      0.00762310       8
H              20.54640000      0.64738700      0.76708500     -0.03199650      0.02946830      0.03230400       1
H              18.55460000      2.17819000      2.95176000     -0.00148809     -0.00053020     -0.02550260       1
O              12.48160000     24.21610000      3.30675000     -0.00990581      0.01149050     -0.08463680       8
H              12.69510000     24.55190000      1.28813000     -0.01384420     -0.03089590      0.06322690       1
H              13.79850000     25.35860000      3.65261000      0.02124260      0.01734590      0.02491910       1
O              13.50380000     23.62320000     23.33900000     -0.06501470      0.09839100      0.00978311       8
H              12.60140000     24.81120000     22.07650000      0.02863000     -0.04539370      0.02413600       1
H              14.26960000     22.25320000     22.67080000      0.03465030     -0.04881700     -0.04529990       1
O              23.87610000      8.37253000     19.89370000      0.09832120      0.03763630     -0.07530180       8
H              24.01180000      8.90029000     17.98240000     -0.00986796     -0.01842170      0.06843660       1
H              22.27270000      7.97667000     20.23000000     -0.08474170     -0.01717810      0.01105690       1
O              23.79080000     12.27510000     15.51240000      0.02893480     -0.05366310     -0.01222850       8
H              24.58720000     13.25450000     16.72350000      0.04176360      0.01700430      0.03092480       1
H              22.34550000     13.22040000     15.53070000     -0.06788990      0.02707780     -0.01801920       1
O               5.23538000      9.71584000     10.41130000      0.09476550     -0.05418040     -0.08039700       8
H               4.06390000     10.61840000     11.22770000     -0.04934560      0.05773590      0.02443330       1
H               6.53674000     10.33920000      8.47196000     -0.03861010      0.00264444      0.04163050       1
