192
Lattice="24.5825 0.0 0.0 0.0 24.5825 0.0 0.0 0.0 24.5825" Properties=species:S:1:pos:R:3:force:R:3 TotEnergy=-1102.51244 cutoff=-1.0 nneightol=1.2 pbc="T T T"
O       11.73010000       6.06085000       3.33225000       0.08714620      -0.05477500       0.11737400
H       11.24510000       6.60392000       1.79865000       0.00435436       0.03141960      -0.07953130
H       13.76500000       5.67417000       3.75323000      -0.08593090       0.02205860      -0.04241240
O       16.35730000       7.32455000      19.87490000       0.04446070      -0.07027940       0.02453250
H       17.06160000       5.58629000      20.72070000      -0.01033880       0.05704150      -0.02923020
H       14.81660000       7.31659000      20.73280000      -0.03441670       0.01092600       0.01648280
O        5.50929000      16.68930000       6.29222000      -0.08119920       0.08733750      -0.03885560
H        4.77760000      18.59530000       6.69793000       0.04083440      -0.06429860      -0.00253810
H        4.37596000      16.68400000       4.64340000       0.03469120      -0.02245780       0.03938580
O       14.82440000      23.22920000       8.22343000      -0.05568320       0.13019200      -0.01036720
H       15.22350000      21.64240000       8.34771000       0.03794670      -0.13102300       0.01161560
H       13.05450000      23.16430000       7.49971000       0.03031910       0.00020072      -0.00645289
O        6.54818000      21.98360000       0.41233500       0.01018230      -0.00424854      -0.01962320
H        7.62767000      23.28460000      24.34181200       0.01497580      -0.00298422       0.00211803
H        5.19330000      23.00610000       0.96717700      -0.02738910      -0.00030119       0.01428100
O       22.36820000      13.45670000       3.88048000       0.03497210      -0.02436670      -0.05337920
H       20.79870000      12.76590000       3.42719000      -0.02234700      -0.01885340      -0.01559240
H       21.99720000      14.15630000       5.38572000      -0.00969948       0.04264420       0.07058580
O       10.61090000       1.11288000       1.32681000      -0.00874940       0.07970570       0.06699080
H       10.91550000       0.64372700       3.17549000      -0.00033553      -0.02417940      -0.04323870
H       10.31040000       3.01563000       1.98331000       0.01539880      -0.05069890      -0.03848920
O       13.26280000       0.73816800      13.53170000      -0.00922251      -0.00282040      -0.00738819
H       14.40470000       2.16659000      14.00540000      -0.00548403       0.00018682      -0.01017150
H       13.43320000       0.23021700      11.77460000       0.01000680       0.00993109       0.00440432
O        1.90088000      16.04620000      10.39530000      -0.01558250      -0.01237550       0.03277830
H        2.05929000      14.69800000      11.65080000      -0.01038930       0.01074280      -0.01149130
H        3.18417000      15.73630000       9.20794000       0.02069130      -0.00002117      -0.02270990
O       11.70450000      18.67400000      17.88490000      -0.09167740       0.12580600      -0.08477780
H       12.57670000      17.55530000      18.69710000       0.08357350      -0.08180840       0.06145680
H       12.54580000      20.34130000      17.36990000       0.00312357      -0.05004790       0.02121380
O        4.81458000      19.92760000      19.34450000      -0.03259190       0.04566580       0.05453600
H        5.51521000      18.66990000      18.38600000       0.03937180      -0.04005060      -0.01714460
H        5.41031000      20.27350000      21.10360000       0.00460034      -0.01396690      -0.03037560
O        0.26751700      21.10330000      12.52030000      -0.01390830       0.14207000       0.06858720
H        1.53571000      20.07520000      12.21010000       0.09028990      -0.07243610      -0.03488520
H        1.82849000      22.84880000      13.77250000      -0.06684020      -0.06684540      -0.03536710
O       21.60590000      17.18630000       7.76217000      -0.09005960      -0.01656160       0.07909670
H       23.01630000      17.18160000       8.86716000       0.02435650      -0.00168621       0.00996094
H       19.82480000      16.81560000       9.87732000       0.06725930       0.01805000      -0.09228110
O        4.76117000       5.81245000      17.70400000       0.05405630       0.00306292       0.16721700
H        4.45454000       6.10756000      16.13420000      -0.03066810       0.04029870      -0.13549100
H        5.38218000       7.43048000      18.58480000      -0.03055210      -0.03248590      -0.02930760
O       12.52420000      19.41320000      23.80360000       0.00634950       0.01038620      -0.00778161
H       12.16220000      20.77990000      22.68170000       0.00271506       0.02004650      -0.00183304
H       11.63470000      18.15560000      22.86700000      -0.00095860      -0.02628900       0.00421662
O        2.70832000      14.91540000       1.90047000       0.01572650       0.00347005      -0.00761157
H        3.14191000      15.03470000       0.08495100      -0.01245060       0.00324369       0.01539940
H        0.90206700      14.92360000       2.00048000      -0.00666560      -0.00301735       0.00213962
O       15.27560000      12.12700000       7.79968000      -0.03384020      -0.02102380       0.03885230
H       16.31390000      11.43340000       9.21589000      -0.02372810       0.00712328      -0.02631840
H       13.31220000      11.72360000       8.18716000       0.04783210       0.01796750      -0.01858820
O        1.78387000      23.66830000       2.74346000       0.03226690       0.08896290      -0.02512710
H        0.37833300      22.66160000       2.83169000      -0.04845730      -0.03196450       0.00517451
H        1.12403000       0.85574800       2.20919000       0.01894140      -0.05567080       0.02337020
O       17.99130000      10.45550000       3.27592000      -0.05068720       0.00532803       0.03756320
H       17.87820000       8.67783000       3.64535000       0.01786190      -0.01677930      -0.02081330
H       16.65990000      10.82930000       4.60944000       0.03092420       0.01394650      -0.01001420
O       19.95340000      23.56070000      19.79080000       0.00283592       0.04285460      -0.03527900
H       20.81930000      22.68960000      21.06030000      -0.01766370      -0.04000660       0.01580880
H       18.38910000      23.09480000      18.95110000       0.00983722      -0.02005920       0.01501580
O       15.61860000       5.04416000      15.02480000       0.06743450      -0.02452300      -0.04903600
H       15.07350000       5.02283000      16.72460000       0.01615950       0.00246115       0.02128660
H       17.83970000       4.64433000      14.80120000      -0.07707030       0.02043670       0.03390850
O       17.80430000       5.08672000       3.13226000      -0.07965280       0.04565950      -0.07013070
H       18.36480000       4.07649000       1.78313000       0.00384563      -0.01215300      -0.02120250
H       18.74020000       4.72641000       4.44608000       0.06808580      -0.03444400       0.09386510
O        2.86994000      23.91831300      17.27090000       0.04959730       0.02905440      -0.00507247
H        3.43759000      22.26840000      17.93390000      -0.00575015       0.00507457       0.00002125
H        4.53006000       0.35982300      17.41370000      -0.05283840      -0.02641750      -0.00749928
O        3.17013000       9.87955000      21.12360000       0.00037413       0.02472020       0.00478621
H        3.22160000      11.70940000      21.35470000       0.00831956      -0.00857671      -0.00464255
H        1.45744000       9.53722000      21.53200000      -0.01632860      -0.01459660      -0.00069765
O       10.98640000       5.39347000       9.89496000      -0.00267192      -0.00108083      -0.00741700
H       11.25800000       4.08984000      11.16410000       0.00364338       0.00392851      -0.02423660
H       11.15990000       4.82680000       8.12283000      -0.00138976       0.00107203       0.03200960
O        2.54890000       3.91720000      10.25120000      -0.08705280       0.04408070      -0.01796180
H        0.61471600       3.62919000      10.75150000       0.06527440      -0.00724678      -0.01512710
H        3.55301000       3.01284000      11.32620000       0.02896100      -0.04660810       0.03303890
O       24.08784400      12.35020000      14.50680000       0.08770700       0.02866500       0.07204180
H       23.24850000      10.79690000      14.06790000       0.00114041      -0.01893670       0.00749624
H        1.57421000      12.08560000      16.36980000      -0.08717100      -0.00701142      -0.07359560
O        5.47716000      22.20210000       7.41443000      -0.03606380       0.09698900      -0.02267070
H        5.44541000      22.89120000       9.11487000       0.00147166      -0.01314720      -0.00438118
H        4.60513000      23.95910000       6.60058000       0.03126580      -0.08391160       0.01873530
O        1.66296000       4.55228000       4.58393000      -0.01363450       0.00113001      -0.01247600
H        2.59520000       5.14198000       3.06524000       0.00507095      -0.00462100       0.04324640
H        2.34099000       4.35529000       6.29824000       0.01417210       0.00561423      -0.03210190
O        2.36415000      15.56040000      21.46690000       0.00704602       0.01885160      -0.01978070
H        3.12562000      17.12430000      20.63800000      -0.03008430      -0.03364970       0.01886260
H        0.47654200      15.60130000      21.46660000       0.02080480       0.01489250      -0.00297644
O       17.94610000      12.60020000      22.49320000       0.05311090      -0.03911540      -0.07314010
H       17.04850000      13.41700000      23.67849700      -0.04759200       0.03036210       0.05938440
H       17.79650000      10.79090000      22.60260000      -0.00320119       0.00657718       0.00901843
O       15.35560000      17.26630000       9.88436000      -0.01877660      -0.00141224       0.01268440
H       13.74960000      17.63430000      10.87820000       0.04186380      -0.02648460      -0.03086290
H       15.41970000      15.54870000       9.05810000      -0.02153330       0.02529410       0.01286120
O       13.72740000      13.63110000       1.44350000       0.05358080      -0.06209440       0.08435950
H       13.04850000      14.45930000       3.02967000       0.00901039      -0.01331930      -0.03645450
H       15.00890000      12.00370000       2.42159000      -0.05682490       0.07296780      -0.05299990
O        9.46937000       4.09405000      18.74180000       0.03379330      -0.01993010       0.00161612
H        7.90337000       4.93055000      18.89260000      -0.02874820       0.00388710      -0.01110800
H        9.64856000       3.53088000      17.03620000      -0.00262976       0.00258739      -0.00029805
O       17.87810000      16.87760000      14.76680000       0.00338104      -0.00321916       0.00919005
H       17.93550000      16.93920000      12.99140000      -0.02931250       0.00536890      -0.02700670
H       19.63160000      16.46300000      14.90710000       0.02305160       0.00379707       0.02625210
O       15.36170000      21.93490000      16.39340000       0.03202530      -0.02488580      -0.06767370
H       14.57490000      22.95240000      14.76030000       0.02833360      -0.02634250       0.05633940
H       16.63170000      20.46580000      15.73320000      -0.05204510       0.05157450       0.02031010
O       17.57750000       2.51825000      22.52110000      -0.13369700       0.08458460       0.01875890
H       18.19740000       1.02910000      21.99220000       0.03100990      -0.07108270      -0.03166170
H       15.41180000       2.29765000      22.20130000       0.09624990      -0.00362532       0.01266390
O       23.69120000       2.49814000      19.96130000      -0.02783070      -0.04857150      -0.01930680
H        0.42315100       1.75016000      18.96570000       0.02610090       0.01061840      -0.00372010
H       22.66040000       0.88023300      19.84790000      -0.00080680       0.03843450       0.01203510
O        5.66446000       6.98089000       0.38376000      -0.07470280       0.02052290       0.05829670
H        5.13187000       8.03928000      23.65260000      -0.01906600       0.02259810      -0.02422540
H        7.07535000       6.31106000      24.37843600       0.08784330      -0.04325000      -0.03099680
O        7.51550000      12.02840000      12.64580000       0.01643880      -0.05802920      -0.01950810
H        9.21627000      11.18010000      13.57730000      -0.01832960       0.02334100      -0.02655340
H        7.06808000      10.54720000      11.57610000      -0.01816960      -0.03993210       0.04085290
O       20.82320000       3.74437000      15.24930000      -0.01640980      -0.11059200       0.00679267
H       21.75670000       3.00227000      16.97020000      -0.03321190       0.02712310      -0.05462320
H       20.04450000       1.82600000      14.24010000       0.04880500       0.08554320       0.04455900
O       22.11540000       7.57731000      20.87710000       0.04639050      -0.08114990       0.01311920
H       20.93440000       8.31465000      19.93570000      -0.06696200       0.06127510      -0.04323070
H       21.92010000       5.89276000      19.98560000       0.02411670       0.02529410       0.03421590
O       10.77440000       7.04569000      22.56940000       0.01223390       0.01903260       0.03299230
H       10.02790000       8.64398000      22.01380000      -0.00189892      -0.02205320      -0.00808897
H       10.63420000       5.67210000      21.41940000      -0.00629449       0.00378585      -0.01679920
O       12.54990000       0.01348600      21.42710000       0.03843980      -0.00995591       0.07035220
H       12.50080000       0.43116700      23.43130000      -0.02153510      -0.00468067      -0.06240160
H       11.51240000       1.07938000      20.47570000      -0.02226880       0.02010070      -0.00266771
O       21.73540000      16.11530000      21.26100000      -0.01291280      -0.08599350      -0.02784280
H       21.72180000      15.53310000      19.46180000       0.00293575       0.03325970       0.01765290
H       21.03430000      14.33920000      21.78050000       0.00530271       0.04927210       0.01042170
O        9.73948000      14.29190000      23.08630000      -0.17721900       0.09269150      -0.00939671
H        7.76299000      14.84940000       0.77092900       0.07268500      -0.04627830      -0.05867190
H       11.10770000      13.46970000      23.50000000       0.10079700      -0.05705360       0.06346150
O       10.22640000      17.84910000       4.04588000      -0.00872186       0.04076080      -0.11368400
H        9.31868000      18.31900000       2.18444000       0.04855610      -0.01644590       0.07693650
H        8.84039000      17.09230000       4.78925000      -0.03708310      -0.02233570       0.03577280
O       21.50240000       8.44716000      12.50840000       0.01723580      -0.04262850       0.10628400
H       21.38290000       8.23271000      10.84450000      -0.00336218      -0.00096752      -0.09914590
H       21.99060000       6.68012000      13.11620000      -0.01678970       0.04261230      -0.00528271
O       18.71970000      19.93020000      23.76830000      -0.08450000      -0.02015950      -0.02585430
H       19.50890000      18.45220000      22.86440000      -0.02389330       0.02446350       0.01160790
H       16.22560000      19.86740000      23.37150000       0.10189600      -0.00922955       0.01840230
O       21.35890000      21.29220000       3.88011000       0.04392970       0.01185950       0.06194100
H       20.64240000      20.28700000       2.71681000      -0.04078990      -0.04033380      -0.07090440
H       21.58110000      20.05190000       5.25426000      -0.00090702       0.01999570      -0.00193762
O        9.90142000      12.80320000       7.70858000      -0.02925470      -0.00630890       0.03673070
H        7.35203000      12.37540000      10.61190000       0.06554710       0.05783030      -0.01605880
H        8.44399000      12.91810000       6.60895000       0.01762760      -0.00267781      -0.00274376
O       10.97330000      22.75300000       5.09586000      -0.03459540       0.02576760       0.04714170
H        9.32789000      22.87660000       6.02006000       0.02019480      -0.00394204      -0.01679080
H       10.79810000      21.13210000       4.31463000       0.00345791      -0.02480830      -0.00705349
O       22.71630000       8.48761000       7.27327000       0.03692340       0.03950650      -0.02945190
H       23.36840000       9.99114000       6.20411000      -0.02924730      -0.03738630       0.02665870
H       24.27797300       7.52133000       7.33114000      -0.01338270      -0.00170121      -0.00224720
O        2.86770000       8.33486000      13.03900000       0.22505800      -0.17270100       0.01375200
H        1.55795000       9.12994000      12.70260000      -0.17759900       0.09347570      -0.05704500
H        3.30410000       6.41212000      11.83420000      -0.04484850       0.07687340       0.02984630
O        7.32153000      15.83870000      15.77900000      -0.06377470      -0.00204521       0.00546512
H        7.11497000      14.35460000      14.74250000       0.01582000       0.01270160       0.00845437
H        8.82447000      16.73420000      15.88540000       0.05016520       0.00466960       0.00263819
O       14.36030000      14.12960000      17.99980000       0.03740870      -0.07713750       0.02496060
H       15.17420000      12.43530000      18.80440000      -0.02873050       0.07102880      -0.02229530
H       15.85650000      14.92330000      17.28810000      -0.00678347       0.00061034      -0.00392487
O       11.74090000      10.11890000      15.46270000      -0.07738140      -0.04549950      -0.02227290
H       12.66230000      11.51540000      15.81120000       0.05210100       0.06027230       0.01724650
H       12.70730000       8.63493000      15.18930000       0.01575320      -0.00618481      -0.00598089
O        7.99281000      10.61270000      19.69520000       0.03746820      -0.04107920      -0.04591260
H        8.34931000      11.95550000      20.81620000       0.00693766       0.03199480       0.02006490
H        9.59753000      10.31140000      18.68630000      -0.03934430       0.01354010       0.01980260
O        6.29964000       0.47835000      12.24050000       0.04311180      -0.02170700       0.02104420
H        6.53049000      23.16960000      12.33780000      -0.01015760       0.02515310       0.00845697
H        7.93001000       1.05775000      13.01100000      -0.03193180      -0.00860035      -0.01774080
O       19.72750000       0.70022800       6.16366000      -0.09761920      -0.04420370      -0.03992640
H       20.18170000      24.33970000       4.48359000      -0.00726892       0.02071120       0.05758980
H       17.39240000      24.43753100       6.38247000       0.09223720       0.03480970       0.00043792
O        7.02089000      11.98450000       2.79988000       0.00542470       0.07999610       0.00910732
H        7.07499000      10.30210000       2.67333000       0.02746080      -0.09264540      -0.02051220
H        5.32676000      12.04400000       3.28557000      -0.03690610       0.02524510       0.00716688
O        6.23448000      19.52280000      12.43020000       0.05271420      -0.02332930      -0.03761370
H        6.43909000      18.00070000      13.64060000      -0.00132010       0.03113430      -0.02449950
H        7.52085000      19.22830000      10.91770000      -0.04995880       0.00190758       0.05646800
O       22.51570000       1.10982000      10.33550000      -0.00954148       0.16267200      -0.04085690
H       22.04780000      24.11620000      10.37130000      -0.02612070      -0.12314200       0.00132658
H       21.35890000       1.86656000       8.84718000       0.03853350      -0.03677290       0.04133940
O       23.03550000      17.57940000      15.56790000       0.04171530      -0.00608459      -0.03199680
H       24.32285400      16.24060000      15.66030000      -0.02422510       0.00697855       0.00331093
H       23.84350000      18.56030000      14.08040000      -0.02972430      -0.00149669       0.03880790
