192
TotEnergy=-1101.85345000 cutoff=-1.00000000 nneightol=1.20000000 pbc="T T T" Lattice="24.98024000       0.00000000       0.00000000      -0.00000100      24.98024000       0.00000000      -0.00000100      -0.00000100      24.98024000" Properties=species:S:1:pos:R:3:force:R:3:Z:I:1
O              11.39750000      6.82775000      4.10375000      0.02639840      0.00490363     -0.03366880       8
H              11.31610000      5.57729000      2.74277000     -0.00037381      0.00167573      0.02216880       1
H              10.93220000      6.17241000      5.69789000     -0.00162788     -0.01817690      0.01231110       1
O               4.44255000     20.81230000      1.70471000     -0.02678950      0.03086320     -0.06933220       8
H               3.59072000     22.19920000      0.38940700      0.03055780     -0.04402470      0.05671670       1
H               5.57330000     19.79450000      0.59813300     -0.01517490      0.01968800      0.02088100       1
O              14.94800000     20.94290000     21.50930000      0.00842882     -0.07967710     -0.07673980       8
H              15.19680000     22.48620000     22.01470000      0.02299610      0.12799800      0.04211430       1
H              13.83250000     20.30490000     22.63010000     -0.04905080     -0.03408020      0.04330670       1
O              17.43320000      8.94410000      2.23252000      0.02109860      0.05917690     -0.00756466       8
H              17.14600000      7.73041000      3.40195000     -0.01601500     -0.04390620      0.05139600       1
H              16.99430000      8.11781000      0.73560400     -0.01196420     -0.01807030     -0.03593060       1
O              19.64960000      9.88678000     19.24330000     -0.03302410     -0.04733050      0.00541477       8
H              19.18200000     10.98330000     17.96800000     -0.01536610      0.02434920     -0.02692310       1
H              20.98050000     10.75700000     19.93300000      0.04502830      0.01871990      0.02591280       1
O              24.47030000     10.13330000     22.13730000     -0.00129819      0.10513100     -0.17563000       8
H              24.52110000      9.30777000     23.46730000      0.00339763     -0.13152400      0.18258600       1
H               0.08510200     11.72630000     22.66150000      0.00435032      0.02851580     -0.00486895       1
O               1.40976000     13.73400000     15.29060000     -0.05294970      0.11803000     -0.02447190       8
H               1.13933000     15.26880000     16.47730000      0.01512720     -0.04737120     -0.04393770       1
H               1.98977000     12.56170000     16.32930000      0.03782640     -0.07029860      0.06395240       1
O               5.76939000      9.28034000     13.02710000     -0.01741850     -0.00303225     -0.00066869       8
H               5.25488000      7.53873000     13.12000000      0.00383161     -0.00961294      0.00945197       1
H               4.39149000      9.88538000     12.00430000      0.00850425      0.01059480     -0.00214853       1
O               6.98636000      8.39521000      2.77091000     -0.00028902     -0.00372275     -0.01400600       8
H               4.18589000     10.97050000     -2.39606000      0.04615700      0.04561190      0.03609740       1
H               8.79473000      8.00210000      3.08396000     -0.02585750      0.01173750     -0.00103498       1
O               7.59894000     15.97400000      6.98656000      0.01061230      0.01534200      0.02204240       8
H               6.51107000     14.80750000      7.77639000     -0.00943650     -0.02215800      0.01520610       1
H               6.72930000     16.19140000      5.46744000     -0.00190325      0.00991508     -0.03062220       1
O               8.25100000      2.96853000     20.46050000      0.02792890     -0.13429800      0.08187980       8
H               8.82003000      1.00379000     19.92260000     -0.02714010      0.07705260      0.02899990       1
H               8.33141000      3.61096000     18.93980000      0.00195678      0.04982860     -0.11071400       1
O              19.30750000      3.01395000     15.78220000     -0.01172250      0.02134960      0.01005460       8
H              19.57540000      3.64581000     17.47770000     -0.00523942      0.00482678     -0.00765599       1
H              20.39980000      1.61971000     15.80570000      0.02164960     -0.02463930     -0.00442457       1
O              22.38260000     24.35800000     18.89210000      0.02659760     -0.06184270      0.00623698       8
H              22.14070000      0.57856300     20.19170000      0.00090935      0.01335330      0.02370130       1
H              22.63080000     22.65580000     19.80600000     -0.02200820      0.04610650     -0.02089260       1
O              21.26590000     14.53010000     18.11610000      0.00988781      0.04245610      0.03464790       8
H              22.10070000     14.40840000     16.57020000      0.01513690     -0.00929666     -0.03045040       1
H              22.12030000     16.06200000     18.84000000     -0.02763000     -0.02795350     -0.00835690       1
O              16.50570000      0.66749200     24.83350000      0.10239700      0.09028810     -0.20709700       8
H              15.26180000      1.77225000      0.01104200     -0.07447320      0.07540430     -0.00008755       1
H              16.27070000     24.72710000      1.04982000     -0.03139540     -0.17039300      0.20837300       1
O              24.91620000     20.84570000      6.45487000      0.07028950     -0.07586760      0.00736651       8
H              24.46050000     19.29870000      7.54455000     -0.06108930     -0.00349441     -0.01616010       1
H               0.92173400     20.13470000      4.86430000     -0.02830340      0.02054980      0.00493501       1
O               3.57869000     12.37330000      6.56038000     -0.15275600      0.13308000      0.05374050       8
H               4.56316000     11.59470000      5.53052000      0.09051270     -0.08032210     -0.10357700       1
H               2.26894000     13.56480000      5.39002000      0.06249790     -0.05976420      0.04890420       1
O              17.02900000     19.82370000     12.08070000      0.05476440      0.01628410     -0.03030380       8
H              15.50070000     19.17910000     12.53010000     -0.05702990     -0.01932930      0.02867490       1
H              16.72390000     20.01590000     10.31320000      0.00326326     -0.00269205     -0.00887940       1
O               4.65560000      4.80211000     24.05160000      0.05553140      0.01041450      0.00864274       8
H               5.78154000      5.88688000      0.28728800     -0.03201420     -0.01633960     -0.01312730       1
H               5.93393000      3.69708000     23.21370000     -0.02007820      0.01977460      0.00798181       1
O              16.09900000      6.71678000     22.59810000      0.01759310      0.03950960     -0.01897200       8
H              17.67290000      7.74306000     22.12760000     -0.02768910     -0.03000850      0.00359252       1
H              14.74590000      7.68105000     21.75970000      0.00579762     -0.01240090      0.01104320       1
O               3.06292000     21.35070000     18.20560000     -0.06653820      0.06916110      0.03717680       8
H               3.03488000     20.61420000     16.55040000     -0.00699830      0.00775847     -0.01677790       1
H               1.04727000     23.42030000     18.30200000      0.06271180     -0.07083450     -0.00925116       1
O              10.89940000      8.24260000     21.13370000      0.01863620      0.04899290      0.01064370       8
H              10.05650000      6.72862000     21.38580000     -0.01925450     -0.03726710      0.00848932       1
H              10.69980000      9.16191000     22.72780000     -0.00259650     -0.01117110     -0.01309860       1
O              15.69900000     23.39840000     15.99040000     -0.04243450     -0.00876151      0.07987900       8
H              16.49710000      0.01982000     16.22010000      0.00552209      0.01036190     -0.00397831       1
H              14.82240000     23.20850000     17.83060000      0.03284180      0.00069230     -0.07852830       1
O               8.15182000      1.25508000      9.13437000      0.02579400     -0.03660760     -0.02487740       8
H               9.56615000      2.34794000      9.19036000      0.01933140      0.01597740     -0.00262209       1
H               6.91538000      1.97853000     10.08940000     -0.04450190      0.02010740      0.02600510       1
O               6.29372000     11.80440000     17.70550000      0.04184370      0.01896800      0.01072050       8
H               5.76824000     10.65570000     16.37670000      0.00322840     -0.01024750     -0.00298184       1
H               7.85523000     12.54800000     16.96140000     -0.02659460     -0.00437624      0.00847257       1
O              13.90430000      5.51064000     16.48930000     -0.08556850      0.02465570     -0.04280520       8
H              11.88530000      5.93414000     16.66270000      0.09422530     -0.02307980      0.00220416       1
H              14.77180000      5.59485000     18.00080000      0.00491150      0.00205160      0.04422620       1
O              23.03300000      7.81398000      2.75989000     -0.05748640      0.00772061     -0.01777760       8
H              21.73130000      6.49229000      3.04676000      0.03062730      0.00381825     -0.00494898       1
H              21.82750000      8.96238000      1.85757000      0.02700750     -0.01519780      0.01263050       1
O               8.06053000     23.54640000      4.63401000      0.03596850      0.01717460      0.08513020       8
H               6.46572000     22.87430000      4.29019000     -0.02729430     -0.00755987     -0.01063050       1
H               8.03170000     -1.05174000      6.68839000     -0.00115384     -0.00146526     -0.08456260       1
O               3.51762000      4.22807000     14.65300000     -0.01290540     -0.00967179     -0.04517770       8
H               2.96964000      3.88719000     16.31880000     -0.00565352      0.00405621      0.02113530       1
H               2.12123000      3.62304000     13.54230000      0.02376690      0.01123370      0.01541570       1
O              14.44110000     14.38310000     16.26220000      0.05752950      0.07569870     -0.03575900       8
H              15.89870000     15.49510000     15.38210000     -0.05340460     -0.03658640      0.03820860       1
H              15.38220000     12.87790000     16.35110000      0.00293984     -0.03020040     -0.00373017       1
O               7.93021000     22.03790000     20.99270000     -0.03865230      0.03926810      0.01550370       8
H               6.18222000     22.67090000     20.64970000      0.02338220     -0.00717058      0.01142660       1
H               8.00296000     20.98940000     19.58930000      0.01425480     -0.02973290     -0.03162620       1
O              23.49790000     10.38090000     11.61890000     -0.04879070     -0.05761980     -0.04342060       8
H              24.15750000      8.88257000     10.64980000     -0.00579876      0.03051750      0.02167060       1
H              24.79320000     11.35050000     12.19630000      0.05180240      0.03000070      0.02347820       1
O              10.94900000     22.63030000     12.17180000      0.00461005     -0.00673590      0.01479110       8
H              10.85330000     22.74600000     10.39090000     -0.01042820      0.00059286     -0.01191180       1
H              12.12770000     23.89350000     12.62100000      0.01806200      0.00350197      0.00587216       1
O              -0.22905600     15.70520000      3.11877000      0.00394167     -0.00947173      0.00662986       8
H              23.63510000     17.01490000      3.60187000     -0.01233050      0.01294150     -0.00637686       1
H              23.67710000     14.28670000      3.52483000      0.00478547     -0.01026600      0.00205777       1
O              20.88260000      3.49252000      5.93598000     -0.01093000     -0.03804110     -0.03664130       8
H              22.62210000      3.79738000      6.30113000      0.01199660      0.00080826     -0.00164335       1
H              21.03230000      1.93912000      4.65884000      0.00575224      0.05069670      0.04030470       1
O              11.20830000      2.25280000      0.62218300     -0.00597245     -0.01447820     -0.04663300       8
H              10.71610000      1.54310000     23.88850000      0.00910340      0.02173090      0.04359760       1
H              10.09900000      1.42438000      1.78231000     -0.00778656     -0.00797967      0.00863195       1
O              12.03280000     14.93650000     21.83700000     -0.00278858      0.02944940     -0.00930494       8
H              13.08730000     13.54280000     21.88910000      0.01503100     -0.04523600      0.01517850       1
H              13.25700000     15.89220000     20.88130000     -0.01489750      0.01640620     -0.00586916       1
O              22.00200000     17.33610000     10.23280000      0.00925671     -0.09222950     -0.00613074       8
H              20.20060000     17.77270000     10.59000000      0.02349900     -0.01845920     -0.00100207       1
H              22.32940000     14.70080000     10.20890000     -0.02334450      0.11472600      0.00434247       1
O               9.96000000     17.54430000     15.47120000      0.09606510     -0.05847300     -0.00789297       8
H               9.89619000     18.77840000     14.18520000     -0.00127506      0.01740100     -0.01647040       1
H              12.37830000     16.42390000     14.88890000     -0.10504700      0.03527890      0.02956780       1
O              14.50970000     15.36660000      7.92892000      0.00198111      0.01473850     -0.00800631       8
H              15.31760000     13.77760000      7.90420000      0.01239770     -0.02372440      0.01203820       1
H              13.96880000     15.43280000      6.20953000     -0.01561180      0.00808859     -0.00129772       1
O              22.47420000     11.49720000      6.18179000     -0.05393470     -0.04225780     -0.32007900       8
H              22.56260000     11.65980000      7.66966000      0.01722420      0.02503810      0.30897600       1
H              21.10920000     10.27500000      5.69206000      0.04176760      0.02496040      0.00871977       1
O              17.24940000      3.85408000     10.02660000      0.04020560      0.02238580      0.05916510       8
H              18.50220000      4.15409000     11.60710000     -0.05307540     -0.01286430     -0.05600140       1
H              18.18370000      4.23679000      8.50469000      0.01206160     -0.00304632     -0.00178161       1
O              15.28250000     19.78970000      4.70353000      0.02154300      0.08405530      0.06088230       8
H              15.55020000     21.57860000      6.04395000     -0.01594610     -0.07440350     -0.06210970       1
H              16.01690000     18.50210000      5.76351000     -0.00266885      0.00025685     -0.00041854       1
O              17.03160000      9.90003000     14.20200000     -0.01590260     -0.01420450      0.01868910       8
H              16.87850000      8.62551000     15.59290000      0.00487369      0.01330760     -0.03306770       1
H              18.74730000     10.10970000     13.72740000      0.01748040     -0.00462446      0.00802671       1
O              22.97990000     23.71830000     13.49620000      0.16312400      0.01516780      0.04957030       8
H              22.85180000     22.47720000     14.74560000      0.00998738     -0.01554360      0.02722440       1
H              21.51090000     23.63490000     12.90360000     -0.17555000     -0.00234449     -0.08224170       1
O               6.92148000     20.37750000     10.43000000     -0.02183040     -0.04729480     -0.06748180       8
H               5.79453000     21.35800000      9.29387000      0.02201600     -0.00491819      0.02047660       1
H               7.24984000     18.78450000      9.24397000     -0.00137345      0.04353830      0.03317710       1
O              19.50420000     19.75050000     20.52290000     -0.03115330      0.01595490     -0.00118806       8
H              17.65760000     20.31810000     20.91360000      0.04875230     -0.01907050     -0.01531770       1
H              19.79350000     18.66310000     21.90960000      0.00683964     -0.00832361      0.01467560       1
O               1.86748000      5.62922000     19.50160000      0.01718650     -0.03562370     -0.01434430       8
H               0.68062700      6.89718000     19.32940000     -0.02429310      0.02905840      0.00124482       1
H               3.11057000      6.15501000     20.67860000      0.00480432      0.00034498      0.01746560       1
O              11.98370000      4.79234000      9.16962000      0.08611630     -0.00655785      0.01106610       8
H              11.31540000      6.17041000     10.17100000      0.00874841      0.00061285      0.00122238       1
H              14.22300000      4.71299000      9.53048000     -0.09486770      0.00772717     -0.00605808       1
O               9.79041000      2.74668000     15.27550000     -0.01426350      0.00864062     -0.00349605       8
H              10.29520000      1.34106000     14.25410000     -0.00373693     -0.00093372      0.00007442       1
H               8.38788000      3.49772000     14.38740000     -0.00016250     -0.00726254      0.00128087       1
O               6.44452000     12.33600000     23.60710000     -0.01615740     -0.12160900     -0.13315700       8
H               7.55820000     11.98070000     20.96170000     -0.03970330      0.01260530      0.05699030       1
H               7.03708000     13.76300000     24.41100000      0.00439379      0.05361720      0.02065760       1
O               2.46170000     15.22410000     21.31430000      0.01951930      0.02551750      0.04712230       8
H               3.36075000     15.84770000     22.92140000     -0.02774210     -0.02042020     -0.04678700       1
H               2.38440000     16.76630000     20.34750000      0.00097484      0.00172211     -0.00096852       1
O              16.74970000     10.41160000      8.34761000     -0.04557230     -0.01121400      0.13235200       8
H              18.21180000     10.04720000      7.56431000      0.06230440     -0.01633080     -0.03304410       1
H              17.12150000      9.84221000     10.42260000     -0.02171150      0.02480020     -0.09351250       1
O              22.01180000      2.87066000     24.37090000     -0.07141960     -0.02692490      0.06087080       8
H              20.69940000      7.32368000     22.85450000      0.00806904     -0.02081160      0.01079350       1
H              20.41050000      1.93818000     25.99270000      0.06704060      0.04306710     -0.08328330       1
O               2.04494000      1.07331000      6.22255000      0.00281379     -0.00599262      0.06938940       8
H               1.61881000      1.01669000      4.55238000     -0.01041070      0.00142596     -0.05905200       1
H               1.48804000     20.19440000      7.34243000      0.03346560      0.05547530      0.01343130       1
O              19.79770000     17.75850000      1.26926000     -0.04779170      0.02668750      0.00240668       8
H              17.89370000     18.03670000      1.17885000      0.04920160      0.00185021      0.00742701       1
H              19.82740000     15.99670000      1.04271000      0.00199622     -0.02528490     -0.00639707       1
O              10.11790000     18.31440000      2.97003000      0.06767710     -0.08457730     -0.04190670       8
H              10.48360000     20.02610000      3.06744000      0.00865227      0.03904350      0.00694743       1
H              11.91110000     17.42740000      2.31720000     -0.08369600      0.04573400      0.03051290       1
O              16.14680000     24.27780000      8.41415000     -0.00113906     -0.00989968     -0.01114330       8
H              16.33410000     23.45150000      9.99425000     -0.00015662     -0.00651295      0.01285890       1
H              16.06950000      1.04417000      8.95437000      0.00290940      0.00085322     -0.00470620       1
O              21.13650000     23.99070000      3.72638000      0.05850320     -0.09239910     -0.01332870       8
H              22.51740000     21.58900000      3.99007000     -0.07236880      0.10758100     -0.01540460       1
H              20.00400000     24.02500000      5.11051000     -0.01325980     -0.01892590      0.02021420       1
O              24.69920000      4.23669000     10.22480000      0.01028420      0.25386600      0.21461200       8
H              23.19380000      3.71951000     10.39480000     -0.15812600     -0.05154650      0.02725370       1
H               0.31585200      3.34649000      9.19370000      0.15520900     -0.20173400     -0.24179400       1
O              17.05760000     13.39230000     24.55650000     -0.07059640      0.01931060      0.09761600       8
H              17.86340000     12.18290000     23.67010000      0.03532060     -0.05405180     -0.03710140       1
H              16.21270000     12.38550000      1.14963000      0.03838030      0.03296920     -0.06342520       1
O               2.79182000     19.56690000     13.48130000      0.01411400     -0.01021220      0.04069930       8
H               4.23007000     19.21900000     12.47840000      0.02253160      0.00242498     -0.01234900       1
H               1.39970000     19.75690000     12.47750000     -0.04066280      0.00710816     -0.02788520       1
O               1.74431000      0.73323200      0.39027600      0.01383010      0.01855020     -0.02053260       8
H              -0.05977500      0.98443500     24.99780000      0.01117030      0.00859457      0.00121672       1
H               2.65966000      2.35368000     -0.24863900     -0.02375640     -0.03374360      0.02204460       1
O              11.40580000      9.94769000     11.32290000     -0.02629080     -0.00478294     -0.00251628       8
H              12.47380000      9.78312000     12.70740000      0.01418940     -0.00166928      0.03625150       1
H              12.62140000      9.96513000     10.05000000      0.01486250      0.00565892     -0.03469780       1
