192
Lattice="22.66921 0.0 0.0 0.0 22.66921 0.0 0.0 0.0 22.66921" Properties=species:S:1:pos:R:3:force:R:3 TotEnergy=-1103.43629 cutoff=-1.0 nneightol=1.2 pbc="T T T"
O        4.68549000       1.91018000      15.84390000       0.00110226       0.01185140      -0.00146709
H        3.71899000       2.66107000      17.27260000       0.00749569       0.00792370       0.00198756
H        3.81847000       0.41579400      15.30990000       0.00330791      -0.00547085      -0.00734266
O       14.47520000      13.17120000       8.39381000      -0.00073710      -0.00048507       0.00403555
H       13.52900000      14.21940000       7.24992000       0.00577868       0.00044386      -0.00081038
H       13.15650000      12.10940000       9.10122000       0.00290712      -0.00212856      -0.00198613
O        5.80228000      14.13470000      12.91180000      -0.00616128      -0.00080261       0.00662115
H        5.16668000      12.67220000      11.92980000       0.00379694       0.00260713       0.00078376
H        4.38388000      15.10210000      13.45780000      -0.00458172       0.00053441      -0.00445494
O       11.14590000      21.35870000      20.30990000       0.00039175      -0.00404592       0.00343864
H       10.65050000       0.17099000      19.08790000      -0.00232757       0.00314625      -0.00546990
H       12.90630000      21.09340000      20.13000000       0.00373524       0.01016930      -0.00135489
O        0.09709000       3.04244000       1.86375000       0.00090555      -0.01461420       0.00143470
H       21.97570000       1.29879000       1.84808000      -0.00481048       0.01359880      -0.00166127
H       22.65660000       3.75546000       3.51602000      -0.00249351      -0.00945767       0.00189100
O        6.59106000       6.40420000       6.65353000       0.00136930       0.00369030      -0.00251680
H        5.07263000       5.46534000       6.41097000      -0.00540828      -0.00335906       0.00367280
H        6.71198000       6.69870000       8.42654000      -0.00330739       0.00805839       0.00373666
O       19.08930000      11.08350000       9.58894000      -0.02691170       0.00547338       0.00185106
H       18.29720000      12.74180000       9.49406000      -0.00152449       0.00018614      -0.00844398
H       18.73920000      10.51240000      11.37290000      -0.00399780       0.01181000      -0.01107770
O        3.13477000       8.99059000       1.36303000      -0.00077426      -0.00940603       0.00615292
H        2.06346000       8.87302000      22.53579700      -0.00079468      -0.00413994       0.00299801
H        4.53179000       7.80428000       1.03105000      -0.00513764       0.00487192       0.00880090
O       14.29600000      18.63000000       7.00460000       0.01578170      -0.02028170      -0.03203810
H       14.14870000      17.75190000       5.36472000       0.00351387       0.01398360       0.01521450
H       12.57420000      18.44600000       7.59019000      -0.01238160       0.00546275       0.01565320
O       10.91620000       6.57657000      16.21960000       0.00312612      -0.00084652       0.00010017
H       12.69470000       6.92632000      16.46470000      -0.00113818      -0.00217351      -0.00319794
H        9.83367000       8.57482000      18.38240000      -0.00054054      -0.01112240      -0.00501843
O       11.88950000       0.71619000      11.07730000      -0.01295460      -0.01732510      -0.00913520
H       11.43660000      22.19010000       9.72530000       0.00801179       0.01366510       0.01404250
H       10.31050000       0.91559000      12.00120000       0.00664356      -0.00489807       0.00210995
O       20.65310000      14.46860000      18.36560000       0.02343650      -0.00917565       0.00040126
H       21.85380000      13.49990000      19.44660000      -0.02125370       0.00679175      -0.01541460
H       19.15280000      14.39150000      19.34360000      -0.01369530       0.00061037       0.01204500
O       14.96590000       8.44001000       2.59825000       0.00136965       0.01654340       0.00231649
H       16.27180000       8.76708000       3.83809000      -0.01406520      -0.00116471      -0.01413420
H       15.21660000       9.44161000       1.05411000       0.00187091      -0.01275690       0.00916403
O        0.84106400       8.50874000       6.32572000       0.04070330       0.02846830      -0.02610100
H        2.31405000       9.40155000       7.02432000      -0.00827006      -0.00670824       0.01272030
H        1.41509000       8.44356000       4.44244000      -0.01224920      -0.01993790       0.00820293
O        3.37311000      20.94940000      12.92200000       0.00105786      -0.00238739      -0.00145982
H        4.63302000      20.05380000      12.00160000       0.00564581      -0.00415497       0.00079217
H        2.09582000      19.78200000      13.44570000      -0.00214200      -0.00326860      -0.00040731
O       16.32340000      14.92190000      22.15323100       0.00451411       0.01118640       0.00491192
H       16.47270000      14.41690000       1.22189000      -0.00144876       0.00433045      -0.00314098
H       15.43080000      13.55530000      21.32503000      -0.00277317      -0.01586470      -0.00198375
O       10.75470000      14.48100000      12.98930000      -0.00209781      -0.00351014      -0.00358263
H        9.08053000      14.70710000      13.68690000      -0.00177300      -0.00104414      -0.00389775
H       10.62120000      12.94220000      11.95820000      -0.00366391      -0.00049638       0.00205332
O       12.48010000       3.43075000       6.17908000       0.00032976      -0.00305839       0.00096830
H       10.97370000       3.03990000       7.09731000      -0.00034055       0.00482147      -0.00079082
H       12.28670000       2.25872000       4.71674000      -0.00937978      -0.00381640       0.00107744
O        5.89750000       2.67973000       0.37411300      -0.00540963      -0.00124130      -0.00831890
H        7.55615000       4.61219000       1.61625000      -0.01071560      -0.01224360      -0.01042750
H        4.68098000       1.87888000       1.45874000       0.00026684       0.00607943      -0.00884230
O        0.77230000      14.85760000       9.62687000       0.00096647       0.00481268       0.00685058
H        1.32259000      16.61610000       9.57989000      -0.00071020      -0.00656339      -0.00464929
H       21.77043600      15.25200000      10.19840000      -0.00356925      -0.00508832       0.00034794
O       22.11560000      10.05210000      20.31780000      -0.00250862      -0.01344380       0.00840304
H       21.02930000       8.58359000      20.85380000       0.00463988       0.01496620       0.00034752
H       22.53000000       9.66913000      18.55090000      -0.00097581      -0.00572710       0.00591546
O        4.46717000      16.75850000      19.93840000      -0.00088027      -0.00772381       0.00927700
H        3.15447000      17.55490000      18.87670000      -0.00021039       0.00434049      -0.00840114
H        3.46328000      15.96910000      21.27330000      -0.00006510       0.00104399      -0.00120122
O       16.89340000      20.92740000      12.48920000      -0.00486558      -0.00049725       0.01008610
H       15.48460000      22.07960000      12.33390000      -0.00331519      -0.00312381      -0.00150274
H       17.64320000      20.90620000      10.80670000      -0.00028411       0.00025759      -0.00482268
O        8.97233000      17.40950000      22.06920000      -0.00801155      -0.00108190      -0.00111183
H        9.99886000      18.82800000      21.37410000      -0.00355011       0.00275918       0.00156191
H        7.30363000      17.89650000      21.51760000       0.00205487      -0.00144212      -0.00321752
O       10.72540000      10.92030000       5.14846000      -0.01805940       0.01454640       0.02268870
H       12.33820000      10.21560000       4.88496000       0.01206330      -0.01628510      -0.01872370
H        9.67290000      10.99510000       3.67619000       0.00824147      -0.00342842      -0.01051120
O        8.49392000       6.21627000       1.90769000       0.00816722       0.03341880       0.01696600
H       22.62583100       7.38225000       7.59273000       0.01546070       0.00891555      -0.01203250
H        8.39223000       6.56706000       3.73048000       0.00611632      -0.00528038      -0.02418930
O        6.07637000       0.35539000       5.08135000       0.00100050       0.00122961       0.00609987
H        5.64448000      21.42410000       5.87748000       0.00787552       0.00024556      -0.00573983
H        5.27217000       1.75889000       6.03698000       0.00551007      -0.01460610      -0.01218640
O       14.65780000      15.90190000      15.00630000       0.01860250       0.01186510       0.01665630
H       15.23690000      17.19460000      13.87820000       0.00036337       0.01000310      -0.00752245
H       13.02730000      15.27350000      14.24950000      -0.00759051      -0.00060191       0.00040985
O       17.98970000      12.37990000      13.97370000      -0.00334366       0.00514781       0.00041879
H       19.17380000      12.57270000      15.33040000       0.00808865       0.00481769       0.00462777
H       16.73340000      13.76140000      14.20490000       0.00212289      -0.00392927       0.00228241
O        3.12259000       2.47323000       8.19676000       0.00716886       0.00083828       0.01597400
H        4.53489000       2.42950000       9.50198000      -0.01284040       0.00528566      -0.00777876
H        1.59719000       2.68938000       9.20208000      -0.00092090      -0.00050564      -0.00516611
O       15.94060000       8.44188000      16.22390000      -0.00265639      -0.01157210       0.00208196
H       16.32720000      10.10110000      15.61020000      -0.00094527       0.00406390      -0.00885081
H       17.47540000       7.48995000      15.94610000       0.00128123      -0.00971064       0.00501474
O       18.82700000       7.54481000       5.74454000       0.00814971       0.00639611      -0.00204601
H       19.39520000       7.69094000       4.02090000       0.00025178      -0.00686318       0.00062190
H       19.01810000       9.18188000       6.51143000      -0.00426449      -0.00273353       0.00026490
O        9.92376000      10.62220000       9.88156000       0.00557020       0.00227792       0.00812483
H        9.57521000      10.75420000       8.07137000       0.00420475       0.00149209      -0.00280871
H       10.57350000       8.92045000      10.07460000      -0.00221377      -0.00349577       0.00289789
O       15.68420000      18.86320000      19.46880000       0.04551650       0.00447688      -0.00006884
H       15.26780000      18.01990000      21.09560000       0.00173410      -0.01318400      -0.00233021
H       14.94960000      17.94470000      17.96950000       0.00947732      -0.00650627       0.00281052
O       19.89340000       5.14738000      16.32040000       0.00717300      -0.00570038      -0.00532669
H       21.67290000       5.47765000      16.49890000       0.00012884       0.00200166       0.00413473
H       19.76380000       3.33828000      16.12680000      -0.00184554      -0.00025778       0.00406293
O       13.01200000       4.48160000      21.12320000      -0.02286100      -0.00595746       0.01444640
H       11.27610000       3.89080000      21.52090000       0.02350850       0.01185160      -0.00527587
H       13.40410000       3.57450000      19.62270000      -0.00181837      -0.00340604      -0.00491520
O        1.16458000       8.59686000      15.93180000      -0.00483144       0.00787290      -0.00056662
H        0.58498400       8.64535000      14.16480000      -0.00192802       0.00641243      -0.00458917
H        2.50681000       9.80736000      16.02160000       0.00286940      -0.00731834      -0.00374975
O       21.29760000       3.57160000      10.79740000      -0.00826354      -0.01593040      -0.00694519
H       21.16490000       2.58805000      12.31840000       0.00376708       0.00253370      -0.00042691
H       19.86720000       2.92578000       9.77805000       0.00497578       0.01064310       0.00818673
O       14.75900000      10.43400000      20.51700000      -0.00200099       0.01561090       0.01140210
H       12.95840000      10.17460000      20.49890000      -0.00593750      -0.00200047      -0.00157850
H       15.40350000       9.33572000      19.19370000       0.00399940      -0.00372304      -0.00278748
O        4.65276000       9.65888000      11.01340000       0.00937619       0.00641707      -0.00521628
H        5.12978000       8.92618000      12.63420000       0.00092068      -0.00179730      -0.00149946
H        2.84834000       9.41907000      10.98520000      -0.01732570      -0.00590594       0.00222102
O        6.82096000       2.88887000      11.31900000      -0.02192120      -0.02584450       0.00444248
H        7.83144000       4.31954000      10.83880000       0.00599394       0.00653437       0.01690810
H        6.02592000       2.87347000      13.03060000       0.01253270       0.00591659      -0.00742545
O       18.12210000      20.98470000       7.48990000       0.02463210       0.00739007       0.00436093
H       17.81990000       0.03799000       6.98745000      -0.00015631      -0.00025113      -0.00170166
H       16.55290000      20.01130000       7.18846000      -0.00923698       0.00219221       0.00056420
O       17.05210000       3.36173000       8.07708000      -0.00545016       0.00578509       0.00320395
H       17.47280000       5.06000000       7.56910000       0.00144034      -0.00264678      -0.00336874
H       15.18830000       3.34710000       7.92805000      -0.00000814      -0.00602909      -0.00480574
O        9.50734000       9.72933000      19.80910000      -0.00070429       0.01134750       0.01225160
H        8.14709000      11.91780000      19.23600000      -0.00262446      -0.00254632      -0.00403246
H        9.15522000       8.75139000      21.32850000      -0.00290456      -0.00193753       0.00092879
O        7.13309000      13.35040000      18.13810000      -0.00121763      -0.00816952       0.00080873
H        6.09071000      12.41520000      16.95630000       0.00840514       0.00509689      -0.00135531
H        6.07991000      14.87300000      18.89510000       0.00248939      -0.00818687       0.00207287
O       22.46720000      19.79420000       9.56220000      -0.01455610      -0.01523530       0.01791540
H       21.07780000      20.17680000       8.43679000      -0.00487117       0.00230997      -0.00715147
H        1.30319000      20.39930000       8.88035000       0.01898460       0.02082080      -0.01310060
O       10.78070000       5.82235000      11.21520000       0.00538273      -0.00126839       0.01724990
H       10.86540000       6.08008000      13.09610000       0.00221041       0.00248733      -0.00858291
H       11.52820000       4.15070000      11.03920000       0.00403352       0.00583903      -0.00710459
O        3.48860000      14.05610000       5.03685000      -0.00354240      -0.00425418       0.00083485
H        2.06136000      14.63290000       6.03617000       0.00550061      -0.00164410       0.00028326
H        2.88579000      14.20550000       3.30911000      -0.00475968       0.00088701       0.00231632
O        7.90148000      12.57020000       1.45816000      -0.00400467       0.00350668      -0.01034040
H        6.27191000      12.55300000       2.24957000       0.00164882       0.00069037      -0.00165533
H        8.24005000      14.24100000       0.77434400      -0.00621397      -0.00085692       0.00052423
O        6.07322000       7.77025000      15.45060000       0.00084608      -0.00540438      -0.00645767
H        7.54582000       7.16618000      14.55770000       0.00267386       0.00195749       0.01393180
H        5.15778000       6.26674000      15.94440000       0.00107766       0.00474561       0.00109414
O       22.39730000       8.74948000      11.09210000       0.00983923      -0.00863783      -0.00471455
H       20.98890000      10.73980000       9.63788000       0.01490360      -0.01281390       0.01801700
H       21.80360000       7.02514000      11.33580000      -0.00117400       0.00450494      -0.00506643
O        0.82399000      18.47390000      17.24920000      -0.00788209      -0.00081166       0.00464157
H        0.10369000      19.80050000      18.28200000      -0.00068286       0.00227325      -0.00715752
H       22.28640000      17.07080000      17.46490000       0.00360656       0.00587255      -0.00025384
O       19.80910000      21.46890000       0.90062800       0.01362340      -0.01338030      -0.01005790
H       18.45740000      22.54570000       1.41664000      -0.00406657       0.00245943       0.00063659
H       17.66360000      18.89540000      19.55093000      -0.04329730       0.00562418      -0.00214237
O       21.20030000      17.29060000       3.93897000       0.00518176       0.01836050       0.00139709
H       19.71240000      18.20830000       4.50904000       0.00121802      -0.00829079      -0.00394073
H       21.99110000      18.79920000       3.17575000      -0.00968361      -0.01169150      -0.00383379
O       10.66540000      22.58170000       3.10598000      -0.02766680      -0.00184100       0.00974962
H       10.77770000      22.65270000       1.27544000      -0.00967175       0.00166450       0.01188200
H        7.95108000       0.32039000       4.08426000       0.03217010       0.00133903      -0.01168140
O       19.31900000       6.21748000      21.89980000      -0.00442681      -0.00880135       0.00348702
H       20.03230000       4.71702000      21.15120000       0.00551877       0.00630714       0.00299432
H       18.30460000       5.44514000       0.56729000      -0.00534347       0.00279387      -0.00554200
O       11.81660000      16.49650000       3.45746000       0.00528891       0.00606425      -0.00233219
H       11.17460000      18.09170000       2.79380000       0.00160307      -0.00306441       0.00502244
H       11.02180000      15.20380000       2.49348000       0.00075893      -0.00238164       0.00185186
O        1.23747000      14.42600000       0.48935300      -0.00519876      -0.00479512       0.00268581
H        1.15209000      12.61210000       0.23620600      -0.00574907       0.00611517      -0.00111731
H       22.33409500      15.04190000       1.26817000       0.00885784      -0.00066003      -0.00235402
O        2.78465000       4.03034000      19.67940000       0.00396832      -0.00067363      -0.00573875
H        2.00950000       2.44244000      20.09690000      -0.00712399       0.00656756       0.01043440
H        4.35907000       3.84902000      20.89300000      -0.00680735      -0.01087960       0.01299590
O        6.64180000      18.11790000       4.92387000      -0.00187700       0.01168450      -0.03875100
H        6.85902000      18.69670000       3.12694000       0.00213726      -0.01389640       0.03472540
H        5.79567000      16.48650000       4.84654000      -0.00589994       0.00258317       0.00261135
O        9.98549000       2.11713000      17.32360000       0.00118438       0.00593089      -0.00196943
H        8.17841000       1.90729000      17.38820000       0.00194634       0.00158610      -0.00324044
H       10.49320000       4.62867000      16.86100000       0.00062133      -0.00765163      -0.00030081
O       19.47700000      22.33810000      16.72630000      -0.00044161      -0.00328707      -0.00270994
H       18.54760000      21.63310000      15.27610000       0.00112713       0.00601637       0.00136370
H       18.28770000       0.06009000      18.03250000      -0.00034950       0.00174628       0.00320346
O       16.44830000       2.76876000       2.20223000      -0.00052567       0.00133212      -0.00256295
H       14.73340000       2.84552000       1.56642000       0.00523815       0.00709283      -0.00193281
H       16.36500000       3.17487000       3.95534000      -0.00313649      -0.00014279       0.00287134
O        9.98062000      17.71960000       8.59244000      -0.01022430      -0.01285430      -0.00305726
H       10.35750000      16.16310000       9.47770000      -0.00519151       0.00819225       0.00270374
H        9.31697000      17.26450000       6.91131000      -0.00112651       0.00748291       0.01419900
