192
Lattice="24.49849 0.0 0.0 0.0 24.49849 0.0 0.0 0.0 24.49849" Properties=species:S:1:pos:R:3:force:R:3 TotEnergy=-1103.32441 cutoff=-1.0 nneightol=1.2 pbc="T T T"
O       22.47380000      20.51437000      18.96128000       0.00791832       0.00510894       0.00153627
H       21.20720000      20.68308000      17.57778000       0.01976290      -0.00932429       0.00718412
H       23.51070000      18.99058000      18.86608000      -0.02192430       0.01039640      -0.01061000
O        0.58292000       0.23672000      20.85257000      -0.01521560      -0.02284710      -0.06192720
H        1.44612000       1.27592000      19.47719000      -0.01343500      -0.03550620       0.03658020
H       24.24341000      23.08631000      19.86750000       0.01865000       0.05282710       0.03164000
O       13.03310000       1.74113000      17.37480000      -0.02258240       0.08835600       0.01798250
H       12.93950000       2.40058000      19.14610000       0.01330860      -0.02017150      -0.03124820
H       13.21750000       0.05425900      17.14360000       0.00131838      -0.07556580       0.01746280
O       18.92785000      15.32945000      21.03177000      -0.03103030      -0.08024670      -0.07451240
H       19.96895000      13.75839000      20.77233000      -0.01276130       0.02443500       0.00583112
H       19.46963000      16.18359000      22.37266000       0.03904870       0.05460710       0.07831940
O        4.73059000       7.87721000      18.89340000       0.04464140       0.02533550       0.02918170
H        6.22791000       9.37931000      19.31660000      -0.04885590      -0.04445910      -0.00241664
H        3.88324000       8.16871000      17.37050000      -0.00487672       0.01060630      -0.02671180
O       18.96200000      10.44170000       7.30188000      -0.01684020      -0.03157410      -0.02518930
H       18.01657000      11.76790000       8.16686000      -0.00268942      -0.00138445      -0.01046950
H       17.95587000       9.69372000       5.79399000       0.02133620       0.03308240       0.03039160
O       19.90471000       4.73231000      14.67690000      -0.00200106      -0.00229955      -0.01620060
H       21.80671000       4.57311000      14.28580000      -0.05409240      -0.02223750      -0.00127095
H       18.44061000       3.48661000      14.00890000       0.05691400       0.01677140       0.01889870
O        1.14127000      17.33858000       8.00689000      -0.03713200       0.09084810       0.00340432
H        2.47856000      17.89198000       9.22416000      -0.00152208      -0.01154390      -0.01250280
H        0.07645800      19.25168000       7.84001000       0.02667270      -0.07661350      -0.00259774
O        8.34931000      14.70408000      17.72910000      -0.03955430       0.04541520      -0.07831090
H        6.75611000      14.80748000      16.40960000       0.05168120      -0.01601930       0.05251790
H        8.24331000      13.38998000      18.88810000      -0.01997020      -0.03391760       0.02476620
O       10.08640000      21.40248000      23.71958000       0.05856220      -0.04075770       0.02649620
H       12.03740000      20.55348000      23.49358000      -0.08241730       0.03869070       0.02323700
H        9.31867000      20.81688000       0.93809000       0.02473250       0.00297542      -0.04392890
O       14.25179000       1.27592000       8.88503000      -0.08328430      -0.14424400       0.02796670
H       14.95318000       2.71881000       8.58921000       0.05197510       0.12961900      -0.03871340
H       12.46499000       1.08171000       8.33172000       0.02860500       0.01253920       0.00693076
O       13.31999000       5.05411000       4.52082000      -0.05902660      -0.05083010      -0.04932640
H       11.38129000       5.35401000       4.55752000       0.05455320      -0.00682369      -0.00138625
H       13.43499000       3.41801000       3.21962000       0.00467845       0.05621190       0.04814040
O       12.12510000      14.72228000       8.18569000      -0.00043690       0.01350280      -0.04808250
H       12.10670000      14.85678000       6.25419000       0.01196680      -0.00636484       0.03822720
H       10.73130000      13.54268000       8.46679000      -0.00029996       0.00152682       0.00431799
O        3.74591000      14.37050000      14.36801000      -0.02955340      -0.01451840      -0.02773070
H        2.20591000      15.26440000      15.08891000       0.02109600      -0.03298520      -0.01390630
H        3.22331000      12.86760000      12.96361000       0.01733120       0.05410780       0.04379420
O       23.54695000       1.17363000       4.40375000       0.06426760       0.07699000       0.08931310
H       23.79668100       0.27985600       2.96568000       0.01713420      -0.04683060      -0.06430860
H        0.93657100       1.92561000       4.85440000      -0.08013280      -0.03134340      -0.01676480
O       17.35358000      21.70880000       8.38061000      -0.05534070       0.01510400      -0.04434190
H       15.92188000      23.12150000       8.14551000       0.05078090      -0.03586050       0.01573930
H       17.05968000      20.63910000       6.81981000       0.00730536       0.01214770       0.02911040
O       14.94548000      12.60560000      23.76230000       0.06378430       0.09630880       0.01276490
H       14.20908000      11.88090000      22.38540000      -0.03012980      -0.03439950      -0.05253050
H       16.04798000      14.20940000      22.79570000      -0.03137090      -0.06828930       0.03840070
O        2.71279000      17.32412000       2.81619000       0.00227620      -0.05532580       0.01196320
H        2.42449000      17.40942000       4.64679000      -0.00324421       0.00573472      -0.00938210
H        2.58809000      15.31772000       2.52769000       0.00284849       0.06013810      -0.01154190
O       19.27532000      21.18100000      14.70471000      -0.00960184      -0.04923570       0.00808465
H       18.54742000      22.81210000      14.31791000      -0.01896090      -0.00999504       0.00381165
H       18.07992000      19.62390000      14.96311000       0.02539770       0.05749900      -0.00338540
O        7.38682000       5.29479000       3.99241000       0.04794080       0.11355000      -0.08757880
H        6.92292000       4.34439000       5.25003000      -0.03843560      -0.08764330       0.07760530
H        7.79142000       4.73629000       2.31589000      -0.00982568      -0.03031970       0.00529208
O        4.73631000      18.51260000      11.05229000      -0.08662600      -0.01140970       0.05547970
H        6.33111000      18.42840000      10.50629000       0.09210700       0.00080456      -0.04026380
H        4.55081000      16.98020000      12.14179000      -0.00130367       0.01416480      -0.00228641
O        9.20719000       3.62471000      12.57792000       0.02701070       0.01382480       0.01708370
H       10.43489000       4.96508000      11.93232000      -0.02029020      -0.02438870       0.01293420
H        9.98069000       2.83726000      14.11422000      -0.00898466       0.01514520      -0.02296010
O        8.14321000       1.95691000      23.93212200      -0.01188160       0.03017140       0.02485210
H        7.74219000       2.11892000      22.20247000       0.00291932      -0.00780239      -0.01140780
H        9.36783000       0.68933400      24.24934000       0.00892136      -0.01983680      -0.01186940
O       19.74491000       4.32924000       2.13691000      -0.02706050       0.06071420       0.02813080
H       19.17241000       6.11837000       2.88531000       0.01117520      -0.05627950      -0.03450590
H       21.02641000       3.78056000       3.27681000       0.00990939      -0.01158270       0.01255760
O       24.36223200      12.63872000       6.46571000       0.08348260      -0.02620610      -0.02503050
H       22.78131000      12.12802000       6.85861000      -0.07123120      -0.00662563       0.01815470
H        0.47930500      14.25672000       6.88181000      -0.01637430       0.03215110       0.01515050
O       12.36880000       7.43911000      10.53180000      -0.07065020       0.05412530      -0.02344700
H       11.14750000       8.71321000       9.47875000       0.03525370      -0.03880150       0.04787930
H       13.52820000       6.96311000       9.29304000       0.02930090      -0.01618650      -0.02104430
O        8.68609000      19.55860000      18.76220000       0.04568280      -0.11413600      -0.15731600
H        8.49869000      17.68960000      19.25090000       0.01002770       0.02210520      -0.04405250
H        8.27999000      20.01530000      20.20540000      -0.05328610       0.09764940       0.20165800
O        7.77241000      10.81501000       3.08952000       0.02583450      -0.09258000      -0.00097710
H        7.37071000       8.84891000       3.04962000       0.02930760       0.05284350       0.00136942
H        6.09111000      11.16141000       3.34112000      -0.05818530       0.03631060      -0.00026123
O       12.46660000       9.43611000      19.98570000       0.03027800      -0.07207100      -0.06008010
H       13.05980000       9.06521000      18.08560000      -0.01333000       0.02217660       0.04626800
H       12.82880000       7.54021000      20.40890000      -0.00332862       0.04469690       0.00993307
O        7.28610000      23.16208000      15.27560000      -0.03708150       0.01781880      -0.07616940
H        6.85767000      22.24528000      13.65130000       0.00825897       0.02474600       0.03574700
H        8.18512000      21.94848000      16.12610000       0.02564260      -0.03857610       0.03624670
O        0.50937100      22.20920000       0.86233700       0.02948530      -0.08875280       0.05480100
H        1.70020000      20.55370000       1.34025000      -0.05129060       0.06120520      -0.01582490
H        1.33484000      22.96460000      24.01402800       0.01613650       0.02026910      -0.03862400
O        0.38356600       3.02220000      14.15160000       0.05853090      -0.05596450       0.03764470
H        0.89766000       1.53608000      12.98380000      -0.02794510       0.03461830       0.02720290
H        1.46149000       2.41963000      15.84830000      -0.03660290       0.02904050      -0.06212600
O       14.68678000       4.84872000      21.24298000      -0.09873720      -0.01735910       0.03624140
H       16.28918000       5.05032000      20.75788000       0.08896220       0.01972370      -0.04194150
H       14.82688000       4.05472000      22.86128000      -0.00666119      -0.00561290       0.00937111
O        3.68125000       2.82452000       8.48209000      -0.04183430       0.00659014       0.07413570
H        3.59415000       4.25672000       9.83659000       0.00977174      -0.03273060      -0.04665510
H        2.51299000       1.55972000       9.51429000       0.04004310       0.02687300      -0.04010700
O       12.37408000      15.55871000       2.72794000       0.26488600      -0.07341200      -0.01301610
H       12.85768000      14.26741000       1.48867000      -0.01187100       0.00768335       0.00401172
H       10.90908000      15.98591000       2.87952000      -0.25303600       0.06963570       0.00696384
O       14.67160000       7.36531000      15.45700000       0.00351736       0.00338966      -0.07193320
H       13.94340000       7.28381000      13.50880000       0.03144230       0.00892094       0.07525010
H       16.55760000       7.53091000      15.32650000      -0.03754410      -0.00667046       0.00089565
O        8.66809000      11.24449000       8.66547000      -0.07353480      -0.02457960      -0.03182410
H        8.31579000      10.52019000       6.87083000       0.01328940       0.02614060       0.03959030
H        6.76989000      11.53199000       9.28927000       0.05572300      -0.00925670      -0.01203950
O        4.13368000       2.12138000      17.64340000      -0.05647160      -0.02252770      -0.00232506
H        5.26128000       1.00961000      16.87020000       0.03165190      -0.02579700      -0.01611690
H        4.82698000       3.62267000      18.11920000       0.02976280       0.05515750       0.01450560
O        3.55949000      11.27109000      10.50101000      -0.00372381      -0.04732520       0.01065150
H        3.59249000       9.39149000      11.13501000      -0.00556761       0.04478380      -0.01710350
H        2.11709000      11.55069000       9.35211000       0.00965625      -0.00896046       0.00410070
O       17.11750000      17.47580000       4.85061000      -0.05057820      -0.03173370      -0.00182135
H       17.06730000      16.28390000       6.43461000      -0.00358651       0.02686690      -0.04669820
H       15.51130000      17.09860000       3.66201000       0.05197010       0.00717767       0.05017460
O        1.16889000      23.60810100      11.10431000       0.09638470       0.02092940       0.08100670
H        2.22259000      22.23630000      11.83321000      -0.00965871       0.02207880      -0.00872736
H        0.14759000      22.77844000      10.08311000      -0.08414450      -0.05044670      -0.07032080
O       17.37881000       5.56017000       8.99631000      -0.03912570       0.05034190      -0.07069220
H       18.35001000       5.41868000      10.35071000       0.05642870      -0.03260920       0.09047390
H       17.85231000       7.38224000       8.79351000      -0.01182360      -0.01424660      -0.02006520
O       16.51645000      17.12398000      16.97228000      -0.05743940      -0.05745580      -0.07882210
H       17.24382000      16.26678000      18.36321000       0.01693640      -0.00505026       0.02309540
H       15.34995000      15.63348000      15.97732000       0.03955730       0.05956680       0.03692450
O        3.94882000       6.39309000      12.81309000       0.24891200       0.10683100      -0.05336860
H        5.76812000       5.27669000      13.21139000      -0.06737670       0.05222010      -0.02078920
H        2.87882000       5.35199000      13.25249000      -0.17510600      -0.15324300       0.07112100
O        8.84246000       0.03544100       9.04230000       0.19594900      -0.03559310       0.10496100
H        9.00601000       1.24715000      10.46240000      -0.00875795      -0.00513755      -0.00851665
H        7.50143000       0.25107600       8.26652000      -0.18820100       0.03832630      -0.10206700
O       15.61848000      21.30668000      22.96591000      -0.03705190       0.00327828      -0.03462710
H       14.87418000      21.01323000      21.10491000       0.03192010       0.00790325       0.03420850
H       17.21868000      20.52763000      23.31001000       0.00477644      -0.01225220      -0.00454419
O       12.43130000      14.08399000      14.57306000       0.01921850      -0.02999730      -0.04135730
H       11.23390000      13.81809000      15.98788000       0.00026799      -0.00553351      -0.02585070
H       12.53790000      12.74099000      13.11169000      -0.01432690       0.04189790       0.06475330
O       21.20750000      17.39940000      11.83990000      -0.02568880      -0.07052880       0.05800100
H       20.32640000      18.85310000      11.69100000      -0.04198410       0.06753190       0.01256150
H       22.25710000      17.49110000      10.53870000       0.07325300      -0.00401588      -0.07515130
O       13.66350000      20.83740000      18.24505000      -0.03393820      -0.00139455       0.00900906
H       11.80770000      20.26660000      18.63401000       0.04632140       0.00364529      -0.02124800
H       14.70510000      19.59110000      17.25816000      -0.02229300       0.00495173       0.02370300
O       22.29590000      21.56581000       7.85061000       0.05184380       0.01471910      -0.01857960
H       20.56680000      21.56411000       8.34391000      -0.03007450       0.00853127       0.00077605
H       22.63710000      23.06201000       6.73781000      -0.01108760      -0.01974630       0.00968016
O       16.66469000       8.77282000       2.75189000      -0.04284340       0.00568406      -0.03210590
H       15.96085000       9.93423000       1.31540000       0.02744390      -0.02281990       0.03867720
H       15.23605000       7.55044000       3.04913000       0.02017630       0.01411950       0.00150927
O       16.23940000       1.14149000      13.84940000       0.03904570      -0.00753003      -0.05044470
H       15.48660000       1.03209000      12.11820000      -0.00385562       0.00520270       0.03420850
H       15.25110000       1.70139000      15.24700000      -0.02416330       0.01211780       0.00593671
O       23.23348000      15.06500000      16.30451000      -0.02993860      -0.00256875      -0.05115320
H       22.74198000      13.43230000      17.03141000       0.00352727       0.01336070      -0.00147810
H       22.21801000      15.27670000      14.62641000       0.02914250      -0.00096231       0.05459330
O       19.91371000      18.75841000       0.57956800       0.04317070       0.04703910       0.01675070
H       21.35181000      20.18101000       0.45016400      -0.04793190      -0.05560210       0.01063830
H       19.49251000      18.41481000       2.41262000       0.00826098       0.00843783      -0.03161830
O       21.89640000      11.18420000      19.66018000      -0.08562830       0.01388500      -0.07357460
H       23.19690000      10.63490000      20.55158000       0.08956150      -0.02819530       0.06724220
H       21.22460000       9.58949000      18.98128000      -0.00850945       0.01518330       0.01002340
O        7.84409000      18.84251000       3.32500000      -0.01431520      -0.00270403       0.05246250
H        6.10619000      18.08881000       3.08464000       0.02448820       0.01531550       0.00422654
H        8.10199000      19.10321000       5.30248000      -0.01015580      -0.01583960      -0.05712190
O        9.15631000      18.88848000       8.46761000       0.03955520       0.06514630      -0.02458550
H       10.74540000      17.70738000       8.23761000      -0.03722830       0.03229300       0.01169610
H        9.50506000      20.98648000       8.17791000      -0.00323367      -0.08986000       0.02288490
O        2.47075000      12.28921000       1.90341000      -0.01840190      -0.06076170      -0.04381250
H        1.58872000      12.27111000       3.46978000      -0.01601620      -0.00972584       0.01506910
H        1.59791000      10.68011000       0.78158600       0.03704370       0.06031760       0.02606340
O       17.25385000      14.68980000       9.40630000      -0.00370391       0.00518349      -0.00163743
H       15.56874000      15.23518000      10.01960000       0.03008200      -0.00141278      -0.00360300
H       18.79877000      15.52470000      10.06660000      -0.02958090      -0.00084998       0.00978592
O       19.04035000       6.41901000      19.46930000       0.03140850      -0.01588340      -0.01356940
H       20.05819000       5.58039000      20.77080000      -0.00139101       0.01263340       0.00356472
H       19.93210000       5.65780000      17.98860000      -0.02787290       0.00719499       0.00123462
O        1.20411000       8.73799000      22.63940000      -0.04593510      -0.05625970      -0.01094380
H       24.27910000       7.09349000      22.79147000       0.05074850       0.05046420      -0.00458161
H        2.23311000       8.38899000      21.06657000      -0.00414253       0.00341156       0.02973490
O       22.49590000       4.68871000      22.73821000      -0.00954915       0.04022880       0.00314883
H       21.41320000       4.25522000      24.18241000       0.00050721       0.00211859       0.00537687
H       23.27720000       3.29070000      22.01771000       0.01886990      -0.04374150      -0.01163770
O       15.32370000       1.15251000       1.32542000      -0.00824001      -0.02974690      -0.02605130
H       17.00560000       1.72051000       1.59032000       0.01313720       0.00803333       0.00608775
H       15.50740000      24.03640000       0.23402000      -0.01091750       0.02700230       0.01813620
O        7.98359000      10.84400000      20.88740000      -0.02218480       0.00947479       0.02628700
H        9.67819000      10.16950000      20.54180000       0.01673640      -0.00544825       0.00614151
H        7.63789000      11.02470000      22.72920000       0.00754284      -0.00595570      -0.02912490
