192
TotEnergy=-1103.31090000 cutoff=-1.00000000 nneightol=1.20000000 pbc="T T T" Lattice="24.20004000       0.00000000       0.00000000      -0.00000100      24.20004000       0.00000000      -0.00000100      -0.00000100      24.20004000" Properties=species:S:1:pos:R:3:force:R:3:Z:I:1
O              22.89560000     -4.50838000    -30.10560000      0.14540400     -0.05898510      0.10816100       8
H              21.91640000     -4.60550000    -31.42500000     -0.09054100     -0.00116775     -0.10360400       1
H              24.25030000     -6.13291000    -30.34110000     -0.04009000      0.05653690      0.00406511       1
O              46.88740000     44.46000000     -0.78891900     -0.02007830      0.00550405     -0.05340290       8
H              46.43030000     46.32770000     -0.57071600      0.01659690     -0.03867860     -0.01172560       1
H              46.90220000     43.89580000     -2.92126000     -0.00577471      0.03433680      0.06807650       1
O              10.69920000      2.90208000     14.28750000      0.00050052     -0.00800458      0.04372720       8
H              11.47990000      3.33541000     16.10470000     -0.01051230     -0.00529632     -0.04773890       1
H               9.86860000      1.24871000     14.45490000      0.00616146      0.01152930      0.00133443       1
O              -4.26819000    -11.52450000     -0.94673900     -0.03312270      0.06142930     -0.02374390       8
H              -3.73451000    -12.16550000     -2.70382000     -0.01295550      0.01842820      0.03105460       1
H              -5.31655000     -9.63770000     -1.12331000      0.04947530     -0.06165780      0.00019038       1
O               4.67325000     32.39900000     19.23670000      0.04106120     -0.02551550     -0.06567960       8
H               5.84649000     32.38800000     20.67420000     -0.00667800     -0.00347921     -0.00568876       1
H               5.75961000     31.79490000     17.57160000     -0.03168580      0.02934620      0.06219370       1
O              -4.67426000     11.61990000      8.24367000     -0.00779486      0.01798990      0.04956100       8
H              -5.51648000     10.25810000      7.53158000     -0.00993583     -0.02995490     -0.02640600       1
H              -3.22298000     12.11980000      7.37444000      0.01929060      0.00222726     -0.02693440       1
O              45.19600000     25.78660000     12.15630000      0.01994430     -0.03108980     -0.04535720       8
H              46.90060000     25.34020000     12.85710000     -0.01772510      0.01451860     -0.01718710       1
H              45.13080000     25.15310000     10.23230000     -0.00076163      0.01643460      0.06206100       1
O              -0.95450500    -29.44320000      8.33954000     -0.01478410      0.05622150     -0.01214490       8
H              -0.18137700    -29.33020000      6.63990000     -0.00319922     -0.01898220      0.00906818       1
H              -2.06383000    -27.87320000      8.29749000      0.01129060     -0.03705810      0.00321048       1
O              32.12440000    -34.52720000     22.36990000     -0.01214930      0.06268620     -0.02069450       8
H              32.65570000    -32.97430000     23.25450000      0.00232390     -0.03866110     -0.00781143       1
H              32.70180000    -36.13280000     22.85050000      0.00881719     -0.02349230      0.02877050       1
O               9.70966000    -28.41680000    -25.70490000     -0.09033890      0.01267970     -0.02240450       8
H              11.27230000    -28.29160000    -26.33360000      0.09406870      0.01277600     -0.05144440       1
H              10.04130000    -28.98680000    -24.12480000      0.00270115     -0.02856540      0.07362220       1
O              -8.54233000      2.98303000      6.00232000      0.03217060      0.00367220     -0.02394230       8
H              -9.82872000      3.35874000      4.84490000     -0.01668690     -0.00106259     -0.03397150       1
H              -9.51735000      2.85183000      7.43897000     -0.01354510     -0.00315215      0.05158510       1
O             -12.80820000     26.89360000     51.08940000     -0.04325310      0.05090340      0.09911660       8
H             -14.69150000     27.25300000     51.42480000      0.04079820     -0.00198317      0.02109510       1
H             -13.13870000     26.25760000     49.59640000      0.00440614     -0.04588910     -0.11565600       1
O              15.30070000    -28.03940000    -15.19090000      0.00810591     -0.04514900     -0.00970144       8
H              15.80060000    -30.05420000    -15.29490000     -0.01150270      0.06065030      0.01573520       1
H              15.14620000    -27.29320000    -13.52590000      0.00510665     -0.02085690     -0.00368402       1
O              30.13180000     14.53390000     38.30910000     -0.00505664     -0.07002860     -0.00778537       8
H              29.41490000     12.81990000     37.29390000      0.00673522      0.05122870      0.02332870       1
H              31.38810000     13.69150000     39.41910000      0.00033056      0.01533100     -0.00809896       1
O              -1.54191000      1.41420000      0.38310100      0.01309540     -0.00238131     -0.13805700       8
H              -1.07127000      1.60915000      1.96379000      0.02747150      0.01711980      0.11409700       1
H               0.01947200      2.00674000     -0.59677200     -0.04568710     -0.01124290      0.02210270       1
O             -28.56880000     23.28700000     31.90630000      0.04434080      0.01864040     -0.02003280       8
H             -28.56290000     24.50300000     30.54870000      0.01977350      0.00308145     -0.00393317       1
H             -30.28180000     23.35550000     32.14360000     -0.06094300     -0.01915200      0.02366840       1
O             -33.00160000     11.31430000     24.44080000     -0.15183300     -0.02694700      0.02419520       8
H             -34.24360000     10.86360000     23.05200000      0.04033930      0.00381998      0.02532940       1
H             -31.44390000     11.66570000     23.92810000      0.10029100      0.01521270     -0.04392110       1
O             -18.55140000     63.81760000    -19.63470000     -0.00686396      0.05102000      0.15220800       8
H             -18.16040000     62.52380000    -18.23300000     -0.00451578      0.01179090     -0.03456620       1
H             -18.33930000     63.30640000    -21.16790000      0.01520870     -0.06640910     -0.12449500       1
O              68.30880000     20.98000000     38.85210000      0.34583200     -0.02961190     -0.01751240       8
H              69.02070000     22.28890000     37.91510000     -0.00846489      0.02794880     -0.01735810       1
H              66.84020000     20.93720000     39.01510000     -0.34724400      0.00126295      0.02848970       1
O              54.44890000    -21.37650000      3.96673000      0.00509823      0.03427740      0.03979320       8
H              53.41590000    -21.98600000      5.49105000      0.01861550      0.00195067     -0.02850610       1
H              54.41720000    -22.24380000      2.44192000     -0.01396960     -0.02745480     -0.02614760       1
O              31.34180000     18.27420000    -13.27040000     -0.03593320     -0.00977207      0.04239860       8
H              32.70290000     17.71190000    -14.27360000      0.01295580     -0.00960170     -0.00691560       1
H              30.68790000     16.85950000    -12.09550000      0.02871980      0.01777390     -0.02425310       1
O             -16.50850000      7.62159000     63.23860000     -0.01528680      0.05832330      0.01592980       8
H             -15.25580000      9.06954000     63.48110000     -0.01627910     -0.04750340     -0.01005740       1
H             -15.81660000      6.03332000     62.88390000      0.03497320     -0.01999460     -0.00564079       1
O               7.12860000      0.41426700     -0.71199400      0.07341170     -0.04171010      0.03704480       8
H               6.24621000     -0.58878300     -1.84371000     -0.02951550     -0.01180460     -0.02839390       1
H               8.53505000     -1.02385000     -0.33548100     -0.04654240      0.05591530     -0.01261850       1
O              42.16960000      4.65496000     24.67450000     -0.05758040      0.06004500      0.00145017       8
H              41.65310000      5.72349000     26.16050000      0.01715520     -0.02110580     -0.02809720       1
H              43.36390000      3.51662000     25.14790000      0.04636800     -0.03756550      0.02445590       1
O              -1.35620000     61.32160000     27.64320000     -0.05220470      0.06234730     -0.04296020       8
H              -2.57971000     60.90390000     26.19880000      0.02633340     -0.01161690      0.02057250       1
H              -1.72350000     63.26780000     27.33090000      0.03139630     -0.05953600      0.02591680       1
O              11.45460000     38.58880000      9.64690000     -0.08772040     -0.01498940      0.02542370       8
H               9.66432000     38.30560000      8.91945000      0.05539230     -0.00351040      0.01291630       1
H              12.55840000     39.10430000      8.40409000      0.03387660      0.01169320     -0.03449800       1
O             -17.92630000     20.12110000     18.99730000      0.05941650      0.05776950      0.02129010       8
H             -19.10740000     18.92920000     18.72660000     -0.05128840     -0.06763820     -0.00777630       1
H             -16.87280000     19.72500000     20.52850000     -0.01281060      0.00380482     -0.01977810       1
O              30.19620000     32.53550000     52.56600000     -0.01229650      0.09011490     -0.02313880       8
H              29.99510000     30.81520000     52.53220000     -0.01529910     -0.05995750     -0.00331571       1
H              28.84940000     33.55540000     51.52760000      0.03155260     -0.03334580      0.01810650       1
O              12.38120000     32.89800000     20.61600000     -0.06229240      0.15873800      0.10417800       8
H              11.43060000     33.99170000     19.49020000      0.00107641     -0.00238454      0.00442808       1
H              12.79270000     31.67310000     19.69730000      0.06089850     -0.15499500     -0.10932500       1
O               2.46190000    -24.77660000     18.30030000      0.01303360     -0.03421280     -0.01155950       8
H               0.79074700    -25.62500000     18.03720000      0.02537400     -0.00066922      0.01071510       1
H               3.86981000    -26.17800000     18.48380000     -0.03683940      0.03880610     -0.00057700       1
O               0.93479400     17.59550000      3.64324000     -0.03771220      0.05755640     -0.05725810       8
H               2.64867000     17.06520000      3.66718000      0.01539640     -0.00493445      0.00109126       1
H               0.55327800     18.70920000      1.99310000      0.01574960     -0.03958760      0.05408440       1
O               1.84686000      1.01340000     13.26390000     -0.00734338      0.05351680      0.12681600       8
H               2.12129000     -0.20825600     12.07570000      0.02417520     -0.06103210     -0.02446700       1
H               2.41753000      0.62241700     15.32660000     -0.01772030     -0.00408393     -0.07869800       1
O             -34.60680000     52.84030000    -30.57010000     -0.02215740      0.04334400     -0.04938530       8
H             -33.38210000     52.41050000    -31.85740000      0.01158690      0.00010040      0.00934486       1
H             -34.74110000     51.60700000    -29.36180000      0.01045620     -0.04319890      0.04889540       1
O               3.55400000     50.27050000    -16.35690000     -0.01066180     -0.03599590      0.06237400       8
H               3.60920000     51.33480000    -14.82730000      0.00217059      0.02563480     -0.02129810       1
H               3.66674000     48.69800000    -15.24820000      0.00396241      0.00370421     -0.04204770       1
O             -33.85550000     40.22980000      2.98567000     -0.02683920     -0.02950410     -0.00112376       8
H             -33.94340000     38.43830000      2.38284000      0.00908932      0.02099040      0.00238736       1
H             -35.68590000     40.63600000      3.36275000      0.03252640      0.00403577     -0.00741800       1
O              20.15650000     36.10380000     13.80570000     -0.00290583     -0.00559562     -0.00326413       8
H              21.05080000     37.63710000     13.24180000     -0.00739932     -0.02115110     -0.00830720       1
H              19.69930000     34.99730000     12.36830000      0.00941141      0.02579910      0.01354440       1
O             -17.06360000    -12.38780000      7.79981000     -0.04899510     -0.04609590      0.01306190       8
H             -16.95610000    -13.80370000      6.47931000     -0.00450732      0.02397650      0.02258160       1
H             -18.57580000    -13.06680000      8.96342000      0.04824850      0.02630350     -0.03653390       1
O             -47.24190000      4.20183000     20.12210000      0.00130345     -0.12907600      0.02791150       8
H             -46.30480000      2.41490000     19.74760000     -0.03581940      0.06158220      0.00980886       1
H             -46.39690000      5.30122000     19.13320000      0.04419460      0.05880400     -0.03406990       1
O             -20.75230000    -13.07550000     35.63940000     -0.04328260      0.14552800     -0.02606450       8
H             -21.30550000    -14.50540000     36.27250000     -0.02837450     -0.11295200      0.04070960       1
H             -22.51670000    -11.95010000     35.82880000      0.06688810     -0.02762870     -0.01528490       1
O              16.40000000     15.44930000     31.98120000     -0.01463690      0.02695070     -0.05680670       8
H              17.21460000     13.80690000     32.39640000      0.00343336      0.02034410     -0.01486790       1
H              16.28110000     15.89700000     29.96410000      0.00332457     -0.03078870      0.07118190       1
O             -20.92480000     -2.80258000     34.48580000      0.04073390     -0.01739890      0.02808310       8
H             -19.50150000     -4.16248000     35.18450000     -0.05069060      0.04150030     -0.04404920       1
H             -22.52830000     -3.44046000     33.85130000      0.01008810     -0.02204980      0.00247716       1
O              40.53010000      7.63460000     35.91300000     -0.02587440     -0.00939951     -0.03595110       8
H              39.55010000      6.42631000     34.84510000      0.01979960      0.02020690      0.01976650       1
H              41.12070000      6.62433000     37.27060000      0.01245450     -0.01390760      0.01627110       1
O              -8.78640000    -33.58690000     -9.49198000     -0.07922710      0.04822030      0.00269681       8
H              -7.34155000    -34.47750000     -9.50013000      0.07091130     -0.04420470     -0.00213076       1
H             -10.00720000    -34.51530000    -10.47160000      0.00470495     -0.00384332     -0.00076707       1
O              51.55210000    -18.70730000    -12.69080000      0.05655370      0.01605540      0.07251710       8
H              53.10550000    -18.31270000    -11.32480000     -0.06436080     -0.01494500     -0.06157860       1
H              50.51760000    -19.93320000    -11.71920000      0.01122950      0.00753924     -0.00965244       1
O              14.15580000      1.65498000     10.76300000     -0.00604227      0.03230540      0.07358270       8
H              12.88990000      1.88900000     12.35140000      0.02921140     -0.00151647     -0.05200330       1
H              13.41640000      0.64322000      9.55249000     -0.02818670     -0.03016480     -0.02051580       1
O             -33.64930000     -3.50113000     44.93260000      0.04770380     -0.04499280     -0.03856040       8
H             -33.63870000     -3.86654000     42.93390000     -0.00524173      0.01273590      0.04770580       1
H             -32.12880000     -4.68671000     45.48460000     -0.05010020      0.03311120     -0.00363043       1
O               9.61266000    -11.73470000     -6.49078000      0.06635980      0.01292530     -0.03715400       8
H               9.16345000    -10.95940000     -4.95693000     -0.01854400      0.01551870      0.03226230       1
H              11.39820000    -10.99820000     -6.80580000     -0.05014890     -0.02365370     -0.00077633       1
O              23.71270000     15.28690000     12.17920000      0.01703500      0.03167970      0.01934010       8
H              24.55370000     16.19600000     13.55300000     -0.00022127     -0.02534290      0.00783237       1
H              23.41990000     16.84810000     11.25470000     -0.01067340     -0.01239780     -0.02788050       1
O               9.48255000     21.55770000     -9.51790000     -0.03962280     -0.01154830      0.02667470       8
H               8.23056000     21.03390000     -8.12772000      0.03054370      0.01222810     -0.03043770       1
H               8.75151000     20.82710000    -11.05380000      0.00628636      0.00051337      0.00868847       1
O              23.05760000     51.49670000     29.62880000     -0.02698450     -0.05169980     -0.03408700       8
H              24.35050000     50.59010000     30.45560000      0.02183730      0.00580931      0.01671430       1
H              23.00740000     53.17750000     30.02080000      0.00693381      0.04619370      0.01699080       1
O              -7.87958000      8.67128000      4.66679000     -0.01944530     -0.09563730      0.07301110       8
H              -8.70723000      9.47506000      3.38742000     -0.02770040      0.03374180     -0.05233680       1
H              -9.13851000      7.20115000      5.25500000      0.05155260      0.05775100     -0.01996680       1
O              14.34510000    -28.57720000     15.70960000     -0.02515630     -0.03805030     -0.00675538       8
H              12.54790000    -27.99220000     15.53360000      0.02523620     -0.00796410     -0.00420772       1
H              14.32720000    -30.50940000     15.31280000      0.00927471      0.04709540      0.00854393       1
O               2.38211000     16.06300000     41.50870000      0.05983210     -0.02509210     -0.02996330       8
H               2.27390000     14.44540000     42.42370000     -0.01917250      0.00865748      0.01921850       1
H               4.10392000     15.39160000     40.48020000     -0.05272350      0.03272060      0.00807687       1
O              42.11820000     41.81600000     -0.71289900      0.05767310      0.03196200      0.01902480       8
H              43.83030000     43.03810000     -0.30808300     -0.05312060     -0.04625590     -0.01108270       1
H              41.11830000     41.45230000      0.82155200      0.00653277      0.01212690     -0.00969863       1
O              21.43670000     10.78590000    -29.37360000     -0.01154310     -0.08961740      0.13440000       8
H              21.07240000      8.78906000    -29.32600000      0.01359860      0.04417370      0.00475480       1
H              21.53550000     11.24990000    -30.92340000     -0.00304721      0.04378520     -0.15039400       1
O             -14.06920000     42.40190000      3.38885000      0.03180850     -0.23617900     -0.21219600       8
H             -15.51090000     41.66820000      3.83853000     -0.08950090     -0.04705240      0.02976900       1
H             -13.89010000     43.62570000      4.21151000      0.04448230      0.28601900      0.18944600       1
O              11.32010000    -25.81290000     30.35760000     -0.18293000      0.17386200     -0.14480800       8
H              12.30650000    -26.72140000     31.06220000      0.19541200     -0.17453200      0.14074600       1
H              12.26250000    -24.83550000     29.12450000     -0.01027240     -0.00015342      0.00729893       1
O               3.42419000     35.81610000      1.16382000     -0.03377680      0.01964700      0.07183250       8
H               2.10992000     36.42120000      2.52595000      0.03008920     -0.01706130     -0.03865690       1
H               2.56070000     36.41410000     -0.29510100     -0.00431630     -0.00466876     -0.02505390       1
O             -11.70800000    -13.86600000     13.54310000     -0.01943300      0.00840731      0.05404930       8
H             -10.18740000    -14.82790000     13.34080000      0.00412606     -0.00342044     -0.02674270       1
H             -12.54480000    -13.19900000     12.13720000      0.00629042      0.00244685     -0.03285800       1
O              -6.10591000      4.34117000     15.25380000     -0.01481640      0.02951820      0.04161400       8
H              -4.72052000      4.44694000     16.42780000     -0.00921502      0.01152070      0.01078310       1
H              -5.39341000      3.34535000     14.03770000      0.02224970     -0.04290240     -0.05575470       1
O              25.94560000    -12.01230000     -3.70480000      0.00330584      0.03924860      0.01023880       8
H              24.28100000    -12.57020000     -4.31623000      0.01462880     -0.01969380     -0.00073999       1
H              27.51630000    -12.79110000     -4.18893000     -0.01525460     -0.02563260     -0.00801603       1
O              20.94810000      5.99873000     43.95250000     -0.06549130      0.03263720     -0.00758798       8
H              20.02980000      5.50438000     45.42430000     -0.01264360      0.00538523      0.01069560       1
H              22.24400000      4.86906000     43.87320000      0.06495290     -0.03675290     -0.00133948       1
O              14.07540000     25.90790000     46.23440000      0.00318855     -0.07429710     -0.02329890       8
H              15.23240000     26.58120000     47.34930000      0.02734590      0.04148210      0.03274030       1
H              14.98400000     24.19810000     46.04050000     -0.03588500      0.02669450     -0.00961428       1
O             -16.42600000      8.71485000     23.24010000      0.02007920     -0.01773700      0.04999060       8
H             -14.85080000      7.86114000     22.80500000     -0.00509480      0.00699069     -0.00235843       1
H             -16.59660000      8.34354000     25.15240000     -0.00532647      0.01247530     -0.04491220       1
