192
Lattice="24.55699 0.0 0.0 0.0 24.55699 0.0 0.0 0.0 24.55699" Properties=species:S:1:pos:R:3:force:R:3 TotEnergy=-1103.7089 cutoff=-1.0 nneightol=1.2 pbc="T T T"
O       14.71700000      13.90640000       4.99392000      -0.01710290       0.00008373      -0.00021855
H       15.38570000      14.79600000       3.56962000       0.00421689       0.00046606      -0.00189488
H       12.98110000      14.49350000       5.11293000       0.01339180      -0.00206174       0.00053502
O        9.18705000      11.08960000      10.63470000      -0.00404899      -0.00369675       0.00927173
H       10.44110000       9.99039000       9.90084000      -0.00007213      -0.00381503       0.00545148
H        9.43607000      10.94390000      12.45660000       0.00377348       0.00396720      -0.00905539
O        7.95417000      21.19630000       2.75002000      -0.00092011      -0.00367651       0.00281225
H        7.37949000      22.89140000       2.55440000      -0.00279052       0.00966704       0.00498644
H        6.45322000      20.23770000       2.40103000      -0.00638319      -0.00439314      -0.00717567
O        8.33783000       2.95241000      13.38470000       0.00612287       0.00210726      -0.00062992
H        7.44446000       2.51465000      14.89040000       0.00096114       0.00376904       0.00314907
H       10.10980000       3.08940000      13.87130000      -0.00299039      -0.00522317       0.00398609
O       23.12370000      24.38060000      14.45110000       0.00114675       0.00439321       0.00329134
H       24.10760000       1.12771000      13.63320000      -0.00370148      -0.00040287       0.00391129
H       22.54380000      23.23370000      13.15320000       0.00093463      -0.00665783      -0.00733902
O       21.77600000      16.25270000      23.94410000      -0.00822972      -0.00492530       0.00177287
H       20.07440000      16.04060000      23.20280000       0.01443550      -0.00022074       0.01122040
H       21.96160000      14.96520000       0.71871000      -0.00165753       0.00808463      -0.01492860
O       22.65590000      11.86650000       8.94077000      -0.00961365      -0.00704409      -0.00668497
H        0.25841000       7.77546000       7.58668000       0.00016225       0.01952490      -0.00719493
H       23.27930000      12.16930000      10.62150000      -0.00008307       0.00071418      -0.00580159
O       23.42480000      21.66350000      19.11260000      -0.00888460      -0.00018529      -0.00327601
H       23.22570000      22.35620000      17.42470000       0.00442346       0.00233878       0.00174285
H        0.57701000      22.04410000      19.62510000       0.00788246      -0.00027677      -0.00230849
O       13.62680000       2.36679000      15.12430000       0.00687831       0.03847370      -0.03609240
H       14.19080000       0.93944800      15.91730000      -0.00550807      -0.05791000       0.04499020
H       15.11420000       2.33933000      14.03300000      -0.00816678       0.02233720      -0.01006090
O        9.93116000       7.88095000       2.87151000      -0.02407880       0.00238141       0.00812086
H       11.15950000       7.27628000       1.68648000      -0.00003504      -0.00229759      -0.01075080
H        8.32812000       7.04796000       2.47209000       0.02105030       0.00388390       0.00230851
O        8.11552000       0.03798600      19.24890000      -0.00328932      -0.01507420      -0.00317800
H        7.40608000       1.72970000      19.07430000       0.00220718       0.00417572       0.00893673
H        9.17014000      24.55025300      20.72820000       0.00029304       0.00544297      -0.00205211
O       20.65780000       0.48301300       3.71532000       0.00427840      -0.00218483      -0.00281065
H       21.25340000      23.93515600       2.39110000      -0.01186500       0.00218455      -0.00121096
H       18.99750000       1.01250000       3.16023000      -0.00054708       0.00245309       0.00528152
O       16.62940000       9.54631000       7.36230000       0.00376573      -0.00472539       0.00575619
H       18.43420000       9.33469000       7.40885000       0.00091991       0.00693975      -0.00397850
H       16.35310000      11.14540000       6.54065000      -0.00192977      -0.00066220      -0.00141000
O        0.27811000      15.90460000       6.03463000      -0.00365286      -0.01168220       0.01289660
H       24.02410000      17.45820000       5.59618000      -0.00033714       0.00015711       0.00669686
H       23.86080000      14.92220000       7.30577000      -0.00096724      -0.00106120      -0.00519266
O        0.04253200       4.98148000      12.62240000      -0.00269672       0.00037659      -0.00392413
H       23.02690000       5.99662000      12.65490000       0.00503435      -0.00149661       0.00216750
H        1.24439000       5.83826000      13.70900000      -0.00077534       0.00202043      -0.00110182
O        3.95382000      17.49970000      15.72960000      -0.00134794      -0.00498504       0.00156442
H        5.32505000      18.67960000      15.42940000      -0.01164590       0.00139491       0.00354592
H        2.58949000      18.40150000      16.52170000       0.00952733       0.00093439       0.00021086
O       21.74490000       6.80309000      18.52470000       0.00735599      -0.00062991      -0.00553062
H       21.70900000       7.78799000      16.97250000      -0.00375911       0.00215285       0.01525230
H       21.96250000       7.83807000      20.02140000      -0.00589430       0.00423535      -0.01699610
O       17.31290000      18.18990000       2.51217000      -0.01636580       0.02364370      -0.00410076
H       15.94130000      18.83800000       3.58464000       0.01953840      -0.00232025      -0.00218677
H       17.63250000      19.54470000       1.26017000       0.00385313      -0.01590780       0.01950460
O        1.24966000       6.28852000       7.92711000      -0.00712004      -0.00006907       0.01854700
H        0.47407000       5.84806000       9.60377000       0.01815440      -0.01008220      -0.00081000
H        3.72244000       7.60443000       8.39103000      -0.01554870       0.00589806      -0.01341190
O       19.06860000      10.39960000      22.51150000      -0.00405797       0.02809720      -0.00993802
H       20.55010000      11.23330000      23.15530000       0.00350745       0.00023074       0.00545774
H       17.77030000      11.70230000      22.51240000       0.00429945      -0.00393207      -0.00240013
O        6.27774000       2.50376000       4.02505000      -0.01750520      -0.00000235      -0.00835322
H        6.53359000       2.42047000       5.82504000       0.00702449       0.00412562       0.00377681
H        4.47017000       2.65309000       3.68247000       0.01481240      -0.00446199       0.00130279
O        5.56486000      12.02380000      16.02640000       0.01859970       0.00583604       0.00999565
H        7.34554000      11.52090000      15.88180000      -0.01270820       0.00764256       0.00369812
H        5.60731000      13.66610000      16.88370000      -0.00447254      -0.01253970      -0.01106440
O        1.65475000      13.41050000      12.97370000       0.00140757      -0.00034455       0.00240052
H        3.35001000      12.88840000      13.40750000      -0.00502936      -0.00122105       0.00180479
H        1.67738000      15.11140000      13.60670000      -0.00098397       0.00112001      -0.00243799
O       14.51160000      19.51480000       6.89850000      -0.00572596       0.01617670       0.00540679
H       12.99230000      18.91690000       6.09273000       0.00091524       0.00320131       0.00728738
H       14.18110000      21.23480000       7.52069000       0.00283692      -0.01477750      -0.01107800
O       23.36240000      16.19280000      19.06600000       0.00754125       0.01763020       0.00734388
H       22.94200000      16.12240000      20.86200000       0.00076309      -0.01073810      -0.00196733
H       23.85660000      17.96670000      18.99790000      -0.00739362      -0.00711944      -0.00734680
O       13.00290000      22.43860000      21.71150000       0.00092074       0.00885492       0.03083410
H       12.47230000      22.27530000      20.03780000      -0.00066325       0.00163712      -0.02671990
H       12.71540000      20.77490000      22.44750000      -0.00077178       0.00582887       0.00065408
O        3.17831000      12.83970000       3.74412000       0.00076876       0.00100239      -0.00202533
H        2.06590000      13.89260000       4.86461000       0.00393640       0.00292214      -0.00743511
H        4.32722000      14.07270000       3.03334000      -0.00386387      -0.01260610       0.00977012
O       20.27350000       7.50045000      12.46490000       0.02154600       0.01315230       0.00557380
H       19.74570000       8.89880000      11.40590000       0.00288300      -0.00752377       0.00126418
H       19.14060000       6.12003000      12.58200000      -0.02099060      -0.00511120      -0.00750146
O       18.29230000      15.24070000       8.85318000      -0.00198901      -0.00267979       0.00003826
H       19.49340000      13.85270000       8.47224000      -0.00064198       0.00875760       0.00465314
H       16.89000000      15.28340000       7.67284000       0.01521480      -0.00662616       0.00068286
O       10.98570000       7.15558000      18.06700000       0.01434010      -0.00569946      -0.00110922
H       12.57060000       6.99315000      17.14210000      -0.00585105      -0.00744502       0.00499758
H       11.35020000       6.35737000      19.70940000      -0.00197282       0.00834370      -0.00589238
O       21.15450000      21.49930000      10.64310000      -0.01018220       0.00093277      -0.00245528
H       21.19290000      22.33150000       8.99981000       0.00029990      -0.01942810       0.00752192
H       20.27760000      19.87370000      10.53170000       0.00818205       0.01629540      -0.00535940
O        3.80922000      21.77000000      20.97450000       0.01021190       0.01197940       0.00025660
H        3.37046000      23.19770000      22.08060000      -0.00456926      -0.00374352       0.00236991
H        5.43907000      22.43510000      20.36650000      -0.00874835      -0.01029090      -0.00339255
O        9.09223000       2.92240000       8.37268000      -0.00884404      -0.01732160       0.01118530
H        8.58299000       2.51277000      10.11630000       0.00402414       0.00997085      -0.01173790
H        9.98882000       4.51830000       8.41998000       0.00077823       0.00347060       0.00032058
O        5.19630000       8.85699000       8.14151000       0.01524920       0.01493720       0.00686990
H        5.73806000       9.73933000       9.68038000       0.00849386      -0.00410472      -0.00363422
H        5.11217000      10.18890000       6.82870000      -0.00835091      -0.00562981       0.00077474
O       18.20630000       2.23555000      12.11220000       0.00646024      -0.01043800      -0.00610602
H       17.61140000       1.35238000      10.62130000      -0.00124939       0.00585506       0.00391523
H       19.66070000       1.25500000      12.66760000      -0.00855080       0.00577248       0.00141471
O       10.13550000       1.87456000       0.72214100       0.00243838      -0.01011960       0.00876404
H       10.57080000       0.10896600       0.73884700      -0.00054918       0.00188770      -0.00324683
H        8.85620000       2.16398000       2.03664000       0.00249809       0.00006451      -0.00640505
O        2.59584000       1.08562000      23.90040000       0.00149004       0.00359074       0.00258493
H        1.70628000       0.87017100       0.90941000       0.00195630       0.00317626       0.00505752
H        1.60499000       2.35487000      23.06160000      -0.00202164      -0.00258776      -0.00479654
O        6.91263000      21.57060000      14.47140000       0.00662899      -0.01068850       0.00369325
H        6.77289000      23.10930000      15.38630000       0.00201539       0.00634691       0.00543044
H        6.31099000      21.81640000      12.80160000      -0.00272846       0.00594658      -0.00799073
O       14.56110000      21.56400000      16.52550000       0.01525420       0.00227799      -0.00870242
H       13.17850000      20.39180000      16.43610000       0.00506673      -0.00198707      -0.00686926
H       15.69980000      21.03530000      15.15020000      -0.01741260       0.00149310       0.01201080
O        6.50337000       4.66978000      18.71150000      -0.00619054       0.02305750      -0.02255030
H        4.91549000       5.53351000      18.30160000       0.00669434      -0.00834378       0.00311720
H        7.70267000       5.65848000      17.67620000      -0.00171888      -0.01021560       0.01733680
O       21.20960000       7.62509000       4.88881000      -0.01679780       0.00201866      -0.03450860
H       19.80120000       6.65469000       4.18245000       0.01793580       0.00657050       0.01329080
H       21.70280000       7.02638000       6.48512000      -0.00577027      -0.01056920       0.01387880
O       22.41010000       1.99144000      21.27340000      -0.01637680       0.01094910      -0.00842643
H       22.13390000       0.34822800      20.51040000       0.00563035       0.00033506       0.00587132
H       21.49130000       3.13897000      20.16480000       0.01193910      -0.00570388       0.00290720
O        0.66966700       2.27763000       4.13461000      -0.00302136      -0.00079907       0.00514901
H       23.38909000       1.96203000       4.06036000       0.00508091       0.00104263       0.00072212
H        0.86368400       3.60123000       5.37064000      -0.00068739       0.00191204      -0.00041562
O       20.58680000      13.24980000      15.62960000       0.00028567       0.00206500       0.00477633
H       22.35150000      12.85990000      15.86730000      -0.00259913      -0.00326521      -0.00780563
H       20.56880000      14.88450000      16.43400000      -0.00024431      -0.00078224       0.00337376
O       12.34670000       5.57650000      22.91420000       0.00800778      -0.00658251       0.00613377
H       11.83470000       3.92623000      23.63660000      -0.00264472       0.01237310      -0.00597640
H       14.16520000       5.55206000      22.83860000      -0.00038156       0.00178577      -0.00064914
O       11.36110000      15.25140000      19.40350000       0.00401596       0.00538613      -0.00368968
H       10.71320000      13.87170000      18.38170000       0.00135193       0.00226803       0.00393691
H       11.96930000      16.37530000      18.08320000      -0.00709812      -0.00378446       0.00754280
O       15.44320000      13.03800000      13.61620000       0.00032328      -0.00114148       0.00310763
H       16.84280000      13.12460000      14.76650000       0.00588185      -0.00028002       0.00197556
H       16.24120000      12.45310000      12.09060000      -0.00205163       0.00411709      -0.00637822
O        3.07048000      18.39740000       0.78659400       0.00154561       0.01293730      -0.00972600
H        2.82210000      19.15900000      23.66014700       0.01019920      -0.01305510       0.01440270
H        3.09154000      16.59260000       0.61659500      -0.00770907       0.00531490      -0.00691205
O       10.82790000      11.65270000      15.82440000       0.00763210       0.00159889      -0.00615562
H       12.31010000      12.34490000      14.95090000      -0.00388270      -0.00473986       0.00440998
H       11.43090000      10.31650000      16.93820000      -0.00566099      -0.00283653      -0.00303401
O        2.65186000       7.63828000      16.41660000       0.00058553       0.00596274      -0.00044552
H        1.00145000       7.43365000      17.16600000       0.00568252       0.00746447       0.00391362
H        3.20911000       9.42629000      16.45030000      -0.00604040      -0.01442640       0.00132166
O       14.12830000       1.06113000       7.66757000      -0.01250100      -0.01810940       0.03590740
H       14.25490000       2.04471000       6.22963000       0.01382800       0.01940160      -0.03412160
H       12.46300000       1.57530000       8.25678000       0.00063160      -0.00705114       0.00295810
O       12.27380000      17.98120000      23.64810000      -0.01038100      -0.02547560       0.00819032
H       11.84280000      17.43760000       0.78081000       0.00412378       0.01369440       0.00342380
H       11.40510000      16.71990000      22.62950000       0.00386208       0.00550139      -0.01306430
O       10.71610000      17.85440000      14.88960000      -0.00163150       0.01149270      -0.00124662
H       11.52060000      18.09010000      13.27160000       0.00321566      -0.00138943       0.00485515
H        9.76087000      19.40740000      15.15270000      -0.00216256      -0.00990723      -0.00635818
O        8.13633000      12.54300000       5.57508000      -0.00290369       0.02351650       0.01434360
H        8.69843000      11.12520000       4.63352000       0.01825110      -0.01328930      -0.00401469
H        9.29359000      13.04720000       6.93043000      -0.01234880      -0.01642700      -0.01507310
O       16.54320000       8.00475000      16.75090000       0.00495585       0.01847300      -0.00572438
H       17.90530000       7.07264000      17.52110000      -0.00383610       0.00448804       0.00011934
H       17.26730000       9.65398000      16.28650000      -0.00657395      -0.02546960       0.00767204
O       23.93460000      21.28340000       6.08637000      -0.02420000      -0.01198840      -0.04485370
H       23.65370000      21.42450000       4.24136000      -0.00349504      -0.00760354       0.02987830
H        0.76081000      22.36370000       6.19307000       0.02882700       0.02080420       0.01217610
O       20.42610000      21.55690000      24.23900000      -0.00364396       0.00360627      -0.00276466
H       21.93710000      20.56130000      24.25390000      -0.00148266      -0.01089290      -0.00224546
H       19.79510000      21.37830000      22.54520000       0.00440293       0.00417941      -0.00067398
O       16.29350000       3.12925000       3.04145000      -0.00191137      -0.00495254      -0.00520018
H       17.15910000       4.05197000       1.71526000      -0.00561814       0.00820567      -0.00333132
H       14.84130000       2.36228000       2.25663000       0.00186277       0.00331965      -0.00272701
O       12.27970000       6.83740000       8.10751000       0.01094930       0.00217501      -0.01129540
H       14.01990000       6.37601000       7.69535000      -0.00978575       0.00668183       0.01274300
H       11.93090000       7.91189000       6.68017000      -0.00579590      -0.00339648      -0.00301220
O       16.73000000      15.32530000      23.06910000      -0.01457730       0.01515310      -0.00918729
H       15.37070000      16.55100000      22.59130000       0.01817160      -0.02460630       0.00545923
H       17.06350000      15.91440000       0.22781000      -0.00399433       0.00004699      -0.00161047
O       18.93770000       6.05787000      23.74160000      -0.00790607      -0.16276700       0.06320400
H       20.09720000       4.60107000      23.43300000      -0.01371280       0.04352760      -0.00719326
H       18.99080000       7.61941000      23.10490000       0.01783220       0.08691200      -0.04348780
O       15.95040000      18.49010000      12.61360000      -0.00189509      -0.01462440       0.01214500
H       16.12340000      16.86320000      13.49190000      -0.00259285       0.01582090      -0.01500030
H       15.95040000      18.01680000      10.86290000       0.00494789       0.00002809      -0.00248653
O       23.04800000      11.55160000       1.40429000       0.00101184      -0.01455290       0.01433520
H       22.41130000      10.23380000       2.53783000      -0.00117805       0.00921130      -0.00622725
H        0.08611000      11.97450000       2.22282000       0.00055977       0.00236858      -0.00808718
O       10.44280000      17.04640000       4.24018000       0.02408220       0.00477248       0.00520962
H        9.33610000      18.42060000       4.58733000      -0.00770421       0.01474960      -0.00296992
H        9.43664000      15.77480000       3.51966000      -0.01820450      -0.02082990      -0.00172854
