192
Lattice="24.44634 0.0 0.0 0.0 24.44634 0.0 0.0 0.0 24.44634" Properties=species:S:1:pos:R:3:force:R:3 TotEnergy=-1103.45265 cutoff=-1.0 nneightol=1.2 pbc="T T T"
O        0.50396000      21.98876000      10.93968000      -0.13718200       0.08132990       0.01823490
H       23.63700000      21.20127000      12.02468000       0.01988500      -0.00085041      -0.01304250
H        1.90396000      21.17976000      10.79268000       0.12216500      -0.08352790       0.00055446
O        2.81122000       0.92352000       0.55012700       0.08347260       0.07749270      -0.03524540
H        4.56072000       0.88792000      24.06522300      -0.05322810      -0.00089323       0.02914470
H        2.16112000      23.81916000       0.88945200      -0.02113700      -0.07484320       0.01252370
O       14.13520000       0.90859200      18.24590000      -0.06379290       0.05539410      -0.09989180
H       13.64250000       2.55612000      18.84080000       0.00906415       0.00688478       0.01202690
H       14.84610000      24.44056400      19.40970000       0.05750510      -0.06221760       0.09442630
O       21.29536000      14.88869000      21.74544000      -0.00876021      -0.02980700       0.00195227
H       22.37317000      13.72534000      22.70268000       0.00028981       0.00486870      -0.00401947
H       21.35555000      16.49244000      22.54462000       0.00562559       0.03030280       0.00533125
O        4.12107000      11.38726000      19.42700000      -0.02448930      -0.09322220      -0.01174740
H        3.02278000       9.82746000      18.63250000       0.04128210       0.06982190       0.02286900
H        5.05528000      10.26406000      20.61790000      -0.01027230       0.02113790      -0.00153839
O       16.23815000      11.34960000       6.79511000       0.01780570       0.00450297       0.06971070
H       15.35349000      12.87660000       7.05706000      -0.00808771       0.01960250       0.00163497
H       16.10136000      10.99290000       5.12791000      -0.00573873      -0.02542600      -0.06806370
O       19.34696000       4.70426000      14.05790000      -0.06361450      -0.04081650       0.02778880
H       20.95206000       4.37856000      13.46410000       0.04624940      -0.00873805      -0.02705680
H       18.69036000       2.90786000      14.43560000       0.01166270       0.04285320      -0.00686177
O        1.54220000      12.19388000       5.98311000      -0.04937810       0.02124930      -0.06798320
H        2.59434000      11.02708000       5.16054000       0.02643610      -0.02447240       0.01136280
H        1.71724000      12.85198000       7.56709000       0.02954270       0.00130300       0.05820440
O        8.71046000      13.86818000      17.30450000      -0.08578300      -0.03377720       0.08062310
H        7.52476000      12.31518000      18.57000000       0.01797590       0.08195580      -0.05476210
H        9.82356000      12.56708000      17.13130000       0.05920150      -0.03774280      -0.03188850
O       10.58450000      19.88018000      23.93928000      -0.04552580      -0.03978110       0.01378590
H       11.91260000      18.71108000      24.40218000       0.00742679       0.00572078       0.00537951
H        9.10085000      18.72908000       0.12754000       0.03570670       0.03557800      -0.00918014
O       12.19474000       5.44886000       8.16333000      -0.09544500      -0.05104920      -0.00082962
H       13.12254000       6.33811000       9.26419000       0.07717840       0.06337490       0.04523690
H       10.92684000       5.10727000       9.62306000       0.00937389      -0.01306310      -0.03952090
O       14.24154000       4.50256000       0.66552000      -0.03099790      -0.00468395       0.00304057
H       12.77444000       3.45136000       1.21142000       0.02352320       0.00596864       0.00303586
H       15.56248000       3.30606000       0.26592000       0.00984834      -0.00209736       0.00896214
O        9.40394000      18.03998000       7.19074000      -0.06414490      -0.00347499       0.01617810
H        8.67152000      17.19578000       5.66664000       0.01368700       0.01234000       0.01340440
H        7.69981000      18.32888000       8.30584000       0.05546310      -0.01110730      -0.03121020
O        2.86276000      13.72320000      11.11046000       0.04799960      -0.01812320      -0.00377008
H        1.62456000      13.59630000      12.38696000      -0.02050150      -0.00357862       0.01395070
H        4.21956000      12.45010000      11.56076000      -0.02924170       0.02249670      -0.01375250
O        3.50427000       3.08236000       5.40684000       0.04276500      -0.05081110      -0.03992630
H        4.82624000       2.25540000       6.60004000      -0.04191020       0.01231450      -0.03023180
H        3.62477000       1.98322000       3.57478000      -0.00865977       0.03995430       0.06095870
O       14.95808000       1.16246000       9.11466000       0.00531345       0.03855300      -0.01933570
H       16.65498000       1.20186000       8.17446000      -0.04130390       0.00836453       0.01325540
H       13.94628000       2.89076000       8.81726000       0.03702170      -0.05418330      -0.00148541
O       16.45308000      12.97340000      22.81570000       0.06696480       0.09177660       0.10794700
H       16.01548000      12.07340000      21.50480000      -0.03112440      -0.07096280      -0.10847900
H       18.13268000      13.81680000      22.38200000      -0.02715830      -0.01990460       0.00546742
O        3.02074000      15.81392000       2.54144000      -0.02590440      -0.03643490       0.02309900
H        2.58124000      14.56162000       3.99464000       0.01562110       0.03075150      -0.01981640
H        1.84264000      15.00142000       1.39634000       0.00694537       0.00626433      -0.00820163
O       20.55912000      19.90430000      12.88706000       0.00379225      -0.06307670       0.06689780
H       19.23092000      21.09400000      12.88706000      -0.02384300       0.03042460       0.00609720
H       20.10732000      18.73890000      14.47336000       0.02544210       0.04683440      -0.05332530
O       11.27832000      12.17704000       0.52864900      -0.09659780      -0.05599660       0.04216130
H       10.01532000      10.82214000      24.26679700       0.03096360       0.03703440       0.01807110
H       12.41612000      12.43624000      23.75396000       0.05775750       0.01607520      -0.05793310
O        5.22666000      18.43270000      10.74054000       0.00324534      -0.05200910       0.02245010
H        6.81366000      18.28080000      11.85024000      -0.02991080      -0.00391284      -0.01439560
H        4.30006000      16.59780000      11.02434000       0.02791060       0.05755970      -0.01219320
O        9.20094000       5.93830000      16.85852000       0.10019400      -0.02402690       0.02302000
H       10.42744000       5.80049000      18.44402000      -0.03633530       0.00413410      -0.04071240
H        7.56644000       6.10088000      17.32912000      -0.07068510       0.00482517       0.02534280
O       10.72720000       0.38845800       2.11600000      -0.01144430       0.00744939       0.08127360
H       10.62450000      23.91644500       4.05800000       0.00320888       0.03832330      -0.04442020
H       11.29440000      23.40761000       1.29254000       0.01131000      -0.03663190      -0.03532940
O       19.28756000       0.83190400       5.69986000       0.06059870       0.01169690       0.00900784
H       21.21116000       1.99924000       5.91696000      -0.06842670      -0.03327810      -0.00563094
H       19.70146000      23.49075000       6.18596000       0.00709070       0.03781250      -0.00989081
O       21.01106000      13.12082000       7.90116000      -0.01673240       0.00680293      -0.03196210
H       19.36184000      12.52072000       7.11626000       0.02823100       0.00437373       0.01395760
H       22.24158000      13.53022000       6.55746000      -0.01585110      -0.01660640       0.01664540
O        2.02702000       7.53966000      12.39710000       0.00015575      -0.07097870      -0.08379150
H        3.62969000       7.37986000      11.16240000      -0.05665490       0.01276700       0.04536880
H        0.70252100       6.09906000      11.46130000       0.05259710       0.05302430       0.04354330
O       11.59244000      18.75340000      19.15930000       0.00849538      -0.03446290      -0.12454100
H       10.45864000      17.39290000      18.63040000       0.01321020       0.00526177      -0.00473542
H       11.14334000      18.92710000      20.74500000      -0.02462520       0.02241020       0.12487700
O        0.41646000      11.73556000       0.02202000       0.00637333      -0.00089831      -0.05151070
H       23.95920000      10.29926000       0.64312000      -0.00432754      -0.01318950       0.01702890
H        0.92806000      11.09976000      22.75886000      -0.00107740       0.01423920       0.02935390
O        7.72610000       2.95206000      22.91900000      -0.00099208      -0.01374530      -0.03585990
H        8.29308000       1.73366000      21.57680000      -0.00914035       0.01698320       0.01794170
H        8.92017000       2.62706000      24.22150000       0.00553716      -0.01009550       0.01743270
O        4.94127000       0.16644000      16.32130000      -0.05935270       0.02699540      -0.05181960
H        4.00210000      23.22338000      16.87980000      -0.00892057      -0.01706410       0.00930672
H        6.42806000       0.25774000      17.14710000       0.07055550      -0.01000770       0.04175340
O        0.60490000      20.85260000       1.85653000       0.00136619      -0.00689403       0.03302280
H        2.02632000      19.69180000       2.00612000      -0.01065600      -0.00050609      -0.00191964
H       24.27422000      20.81460000       3.63848000       0.00692149       0.00821080      -0.02973510
O       23.38515000       3.07116000      11.08140000      -0.00965291       0.06532010      -0.08689430
H       23.57814000       3.18487000       9.01318000      -0.02076760       0.00858498       0.08042730
H       24.05554400       1.52651000      11.38710000       0.02996340      -0.06581550       0.01947300
O       13.13218000       5.48762000      20.45428000      -0.00281122       0.01384720      -0.01103770
H       14.24718000       6.86462000      19.92368000      -0.00789412      -0.00543222       0.00537443
H       13.23768000       5.32062000      22.32548000       0.00709620       0.00012803      -0.00695551
O        9.97109000       9.75042000       5.88624000       0.05318720      -0.06427030      -0.03089560
H       10.66550000       8.01022000       6.62184000      -0.01431650       0.04851410      -0.01803240
H       11.02010000       9.73962000       4.22274000      -0.03422120       0.01007520       0.04899760
O        8.06838000      16.26346000       2.35325000      -0.00258258      -0.04661940      -0.03078080
H        9.18218000      14.77496000       1.90263000      -0.01005960       0.02838240       0.00883148
H        6.40998000      15.62636000       1.67737000       0.01377340       0.01752780       0.02321470
O       15.40760000      10.40506000      18.62660000      -0.02863800       0.00332065       0.01505800
H       16.97130000       9.95956000      17.72710000      -0.00413514       0.00642786      -0.01765470
H       13.93360000      11.17106000      17.76540000       0.03654540      -0.01801470      -0.00220093
O        6.69454000       9.44974000      10.53250000      -0.02118080       0.01305740      -0.05955880
H        7.94904000       9.53604000       9.19119000      -0.01456580       0.00824816      -0.00165945
H        7.69984000       9.03094000      11.84800000       0.03569950      -0.01400570       0.06121100
O        3.71208000       5.34484000      16.72020000       0.00429857       0.00715391       0.02029880
H        4.18448000       3.56468000      16.68550000      -0.01489810       0.00267067      -0.00809718
H        2.83298000       5.90971000      15.20690000       0.00685331      -0.00475663      -0.01375630
O        4.85614000       8.22814000       4.08826000       0.01127300      -0.06227110       0.02137590
H        6.44954000       8.04804000       5.03956000      -0.01062110       0.02099750      -0.01058010
H        4.26834000       6.37824000       4.45226000       0.00087118       0.04116250      -0.01361020
O       14.75450000      17.39940000       1.12506000      -0.01909070       0.04203650       0.06993920
H       15.03600000      17.28830000       3.03106000      -0.01151400      -0.00021814      -0.03995690
H       15.63670000      16.09930000       0.43326000       0.02718710      -0.05408520      -0.02627380
O        6.17184000      24.27600400       8.67246000      -0.19340300      -0.06711830       0.07034770
H        7.74824000       0.04078900       8.43586000       0.16838300       0.00117159      -0.02050800
H        5.76314000      22.63105000       9.80286000       0.02518790       0.06536180      -0.04898590
O       15.22166000       8.05096000      11.28256000      -0.12167000      -0.08413670       0.05853410
H       16.24086000       6.95479000      12.09276000       0.06323830      -0.03037530       0.02375320
H       15.61866000       9.35478000      10.41536000       0.06357050       0.11411700      -0.07991500
O       20.01259000      16.63368000      17.14161000       0.00060073       0.03196120       0.11009300
H       20.25508000      15.55148000      18.81180000       0.00466826       0.03568730      -0.04149620
H       19.89460000      15.48688000      15.91403000      -0.00354704      -0.06927190      -0.07264480
O        9.32552000       3.35244000      12.15944000      -0.08646870      -0.02004090       0.07468170
H        9.13422000       3.48734000      14.23824000       0.01897690       0.00588799      -0.07856450
H        7.42922000       2.72384000      11.85504000       0.06954410       0.01931590       0.00036547
O        9.33809000      23.72109800      19.05680000       0.03503360       0.01804050      -0.00795629
H       11.18070000      24.20122400      18.63820000      -0.03523520      -0.00396923       0.00402507
H        9.52013000      21.93370000      19.26040000      -0.00280667      -0.00623899       0.00259067
O       16.40058000      21.40255000      22.78536000      -0.00656183       0.02274540       0.05655070
H       16.65048000      21.20945000      21.09066000       0.00923758      -0.00850654      -0.06936070
H       15.60738000      19.88287000      23.34076000      -0.00429466      -0.00473738       0.01149070
O       10.91800000       9.93894000      14.78115000      -0.10925600       0.03423890       0.04633610
H       10.05080000       8.32604000      14.88531000      -0.00214449       0.00149100       0.01815730
H       12.30440000       9.48584000      14.04724000       0.12438700      -0.02917970      -0.06701200
O       19.84220000      18.39170000       8.55847000      -0.02139110      -0.00919005      -0.05159770
H       19.96100000      18.50370000      10.34120000       0.00777857       0.00554733       0.03147160
H       20.00650000      16.66580000       8.05397000       0.00344570      -0.01336950       0.00585898
O       16.40470000      20.28190000      17.59125000       0.07182020      -0.04512990       0.00219304
H       14.82440000      19.50540000      17.82874000      -0.02424430      -0.01349310       0.00372176
H       17.85700000      18.63400000      17.53184000      -0.04835800       0.05511730      -0.00010683
O       22.63400000      21.53516000       6.39946000      -0.00592791      -0.00558867      -0.03525930
H       21.46920000      20.15706000       6.90126000       0.01183630       0.00453921       0.01041780
H       23.88290000      21.65176000       7.68546000       0.00373855       0.00225868       0.02017990
O       17.23107000       9.18018000       2.08474000       0.00682299       0.06688210      -0.01199800
H       16.83674000      10.82850000       1.05215000       0.00765381      -0.05421860       0.01469910
H       16.34497000       7.77899000       1.41621000      -0.01428540      -0.01095130      -0.00783236
O       17.16950000      23.68278000      13.83380000      -0.01485240      -0.01759360       0.05810090
H       16.21850000       0.20784000      12.66010000      -0.01820650       0.00231717      -0.01039650
H       16.08510000      23.11158000      15.44260000       0.03845990       0.01900070      -0.06049970
O       21.78697000      13.17160000      13.09726000       0.00067517      -0.02811370       0.01264100
H       21.81390000      11.48370000      14.00426000      -0.00623932       0.03468150      -0.02506770
H       21.39263000      12.93750000      11.29096000       0.00584014      -0.00471849       0.01566860
O       21.36006000      20.18616000      22.50151000       0.00711306       0.00498191       0.02096070
H       22.76976000      20.63696000      23.68104100      -0.02489990      -0.00627054      -0.01164500
H       19.74546000      20.88926000      23.15012000       0.02285850      -0.00703485      -0.00614214
O       24.08860000       7.21874000      19.82258000       0.08260110       0.09506300      -0.08750300
H        1.01366000       6.52202000      18.64258000      -0.03414030      -0.00003909       0.03107040
H       23.26290000       6.02578000      20.60898000      -0.04860110      -0.09985750       0.06052040
O       10.77174000      22.93616000       6.85773000       0.05515180      -0.04534250       0.00524128
H       12.49574000      23.43496000       7.62915000      -0.03688420      -0.00146513      -0.01604720
H       10.83874000      20.91336000       6.76111000      -0.01807140       0.05333450       0.00622603
O        9.37586000      17.41858000      13.57696000      -0.00564760      -0.00700683       0.01692140
H        8.90866000      15.94738000      14.82446000       0.01597200       0.05133410      -0.02063260
H        9.96542000      19.07858000      14.23646000      -0.01059210      -0.04123610       0.00571853
O       23.08781000       4.25096000       6.21666000      -0.05053210       0.00709733       0.00461825
H        0.25140100       3.63816000       5.94215000       0.06077130      -0.01757330      -0.01803180
H       22.88294000       5.68576000       5.05479000      -0.00440145       0.00038085       0.00022525
O       15.11573000      16.50501000       6.65529000      -0.02210560       0.00005899      -0.00502139
H       13.46664000      16.84059000       7.44238000       0.01328880       0.00384810      -0.00842808
H       16.20280000      17.94080000       6.86347000       0.00173788       0.00181230       0.01441800
O       19.90843000       8.97800000      16.54900000       0.02230320      -0.04702190       0.05150010
H       20.92842000       8.41420000      18.26510000      -0.02884100       0.01918240      -0.07324020
H       19.57819000       7.27541000      15.59890000       0.00922749       0.03201510       0.02528570
O       22.39550000       7.69534000       2.35588000      -0.03625890       0.02925990       0.00552479
H       21.96740000       6.45894000       1.11218000       0.00944853      -0.01720230      -0.01012950
H       20.73450000       8.64344000       2.42322000       0.02290190      -0.01709310       0.00649396
O       22.84990000       3.40552000      23.39486000       0.03857580      -0.01922400      -0.01049980
H       21.62030000       2.18612000      23.89246000      -0.02554860      -0.00126257       0.00216331
H       24.35750000       2.26225000      23.27366000      -0.01455520       0.03177750       0.00537505
O       18.56670000       1.51746000       0.65472000       0.02766280       0.00489376       0.06309760
H       19.10230000       1.03616000       2.60532000      -0.02358540       0.01855100      -0.04316910
H       17.58970000       0.13106000       0.17312000      -0.01433800      -0.03167050      -0.01280270
O        7.23894000       8.83014000      23.53980000      -0.00577775       0.02839720       0.02469290
H        7.57944000       7.19139000      23.03640000       0.01246230      -0.04485480      -0.02335650
H        6.60964000       8.45600000       0.79756000      -0.00948371       0.01395520      -0.00193849
