192
Lattice="25.3374 0.0 0.0 0.0 25.3374 0.0 0.0 0.0 25.3374" Properties=species:S:1:pos:R:3:force:R:3 TotEnergy=-1103.14712 cutoff=-1.0 nneightol=1.2 pbc="T T T"
O       23.79370000      17.93830000       5.22654000       0.04863630      -0.04808140       0.02743400
H       25.13823000      16.60240000       5.88021000      -0.04661720       0.05171340      -0.02181940
H       22.26910000      16.93960000       4.99013000       0.00319302      -0.00070842      -0.00214310
O       15.18000000      24.79530000      19.85750000      -0.01908140      -0.07308510       0.01877250
H       16.00450000       0.20576800      18.54700000       0.03290070       0.03110800      -0.04226600
H       14.67200000       0.66754000      20.98830000      -0.01503130       0.04296420       0.02853270
O       17.71930000      20.20520000      21.99590000       0.00258991      -0.01461990       0.02541780
H       18.44470000      19.57700000      20.47200000       0.00080586       0.00279705      -0.00795398
H       16.95730000      21.81660000      21.74110000      -0.00655735       0.01062510      -0.01952830
O        8.88962000      18.83400000      11.54350000      -0.00326301       0.04354840      -0.06134560
H        7.53196000      17.78940000      11.17450000      -0.03376390      -0.01596810      -0.01439540
H        9.46665000      18.13100000      12.96690000       0.03624460      -0.02870370       0.07410520
O       17.87570000      10.68680000       7.32232000       0.01797310      -0.06518730      -0.06527940
H       18.18720000      11.97290000       6.12612000       0.00193467       0.04259120       0.00044444
H       18.33580000       9.36692000       5.84437000      -0.02229430       0.02129160       0.06636960
O       25.32610700      22.28670000      19.76280000       0.03481930      -0.00059735       0.00511342
H        0.12096300      20.63600000      20.45260000       0.02168690      -0.01347700       0.00954140
H       23.60790000      22.30670000      19.55810000      -0.05732980       0.01590010      -0.01405680
O        8.42486000      13.83580000       7.81379000       0.04962580       0.04469890      -0.01263660
H        9.38691000      15.51450000       7.97340000      -0.02136050      -0.04638070      -0.01129550
H        7.06708000      14.18840000       8.88998000      -0.02479850      -0.00077172       0.02089880
O       12.00700000       3.99890000      22.15920000      -0.01224320      -0.06017730      -0.03592890
H       12.40660000       5.54042000      22.78370000       0.01453030       0.05766140       0.02579490
H       10.88710000       3.21019000      23.33890000      -0.00371406      -0.00289562       0.01095500
O       20.86190000       4.21857000      11.86280000       0.03155090       0.01474480       0.01126650
H       21.17320000       5.96083000      12.46570000      -0.02096640      -0.01029300      -0.01206630
H       22.65280000       3.72630000      11.77660000      -0.01356080      -0.00995496      -0.00004681
O        4.98613000      23.69900000       3.40916000      -0.06093320      -0.14716300       0.06065690
H        4.85152000      23.65250000       5.23350000       0.00670486       0.01638340      -0.01241430
H        5.45374000      25.07684200       2.70099000       0.05118540       0.13114700      -0.04873360
O       21.71750000      18.84310000      10.97580000       0.02663320       0.00930370       0.00645804
H       20.09570000      18.33470000      10.61030000      -0.05830230      -0.01858530       0.01490610
H       22.09130000      19.09200000       9.24554000       0.03109020       0.00958563      -0.01797350
O        6.06701000       7.39682000      10.90750000       0.00230205       0.00028596      -0.00856973
H        7.77983000       7.42066000      11.56900000      -0.01011900       0.00154657       0.00133212
H        5.08032000       6.40602000      12.09960000       0.01186660       0.00710013       0.00538459
O       18.90490000      23.62740000       0.84240600       0.07700930       0.03553840       0.04885070
H       18.90480000      22.19750000      25.13160000       0.01156800      -0.02161150      -0.01805490
H       20.94810000      23.84210000       1.59574000      -0.08207300      -0.01804620      -0.02760840
O        9.22391000       2.99910000      17.28680000      -0.03950830      -0.01164510      -0.09252700
H       10.57790000       2.77963000      16.04600000      -0.00873291       0.01022970       0.00628990
H       10.06480000       2.95252000      18.73830000       0.04471280       0.00434862       0.09048970
O       19.45610000       2.06521000       7.15452000      -0.00764912       0.06007090      -0.03386950
H       19.70810000       0.36846400       7.18210000       0.00838755      -0.05566660       0.01140520
H       19.41280000       2.82237000       8.78255000       0.00338312      -0.00197551       0.01751350
O        6.15549000      10.57260000      20.13870000      -0.00991871      -0.01115480       0.04111750
H        7.21364000      10.85160000      18.77920000       0.02525520       0.01351760      -0.03060030
H        4.49797000      10.49240000      19.49650000      -0.01544830      -0.00478503      -0.00824606
O       15.55170000      17.55020000      10.13400000       0.09343920      -0.04750500       0.06729910
H       14.27040000      18.59400000      10.28660000      -0.08549660       0.06342050      -0.00587867
H       15.83290000      16.78770000       8.63223000      -0.00772955      -0.01856800      -0.06338400
O       14.59110000       0.10191800      11.42960000      -0.02088190      -0.00171061       0.00247238
H       13.53420000      23.89720000      12.24120000       0.03181360       0.07499560      -0.00787060
H       14.42000000       2.00681000      11.89270000      -0.00856486      -0.07415910       0.00739395
O       24.33310000      23.18720000       3.37872000       0.05364350       0.11112300      -0.06960410
H       24.37340000      21.62060000       4.09014000       0.01898130      -0.05954300       0.02105140
H        0.86111800      23.94800000       2.61835000      -0.07951000      -0.05099150       0.04549510
O        7.59804000      19.58650000      19.10840000      -0.07584460      -0.04864540       0.07052280
H        6.39485000      18.85950000      20.75970000       0.02481820       0.01527150      -0.08716650
H        8.49359000      20.27030000      20.46740000       0.05105630       0.03264170       0.01350930
O        8.98101000      14.33440000      17.09810000      -0.06185690      -0.02910520       0.01981280
H       10.30240000      13.68320000      16.18540000       0.04924010       0.00869515      -0.02062410
H        8.86291000      16.01130000      17.68870000       0.01581990       0.02044640      -0.00161539
O       12.15870000       9.47087000       7.01513000      -0.04635870      -0.05653350      -0.00148068
H       13.76670000       9.98835000       6.75791000       0.06913470       0.02054990      -0.00773740
H       11.22350000      10.87450000       7.48124000      -0.02580150       0.03437480       0.00811712
O        6.67955000       3.12533000       7.10514000      -0.00684741      -0.06686660      -0.02583390
H        6.68865000       4.66610000       7.82344000       0.00387783       0.07760630       0.03004030
H        5.47138000       2.26023000       8.15720000       0.00146248      -0.01123210      -0.00352060
O        4.60391000       5.25829000      15.28170000       0.00896793      -0.01004340      -0.00334424
H        3.62503000       6.13498000      16.47790000      -0.02444160       0.01498730       0.01093590
H        5.91530000       4.58167000      16.34520000       0.01156980      -0.00883274      -0.00632792
O       15.75330000      16.21240000      25.31496200       0.03802590       0.07549700      -0.03003380
H       15.21340000      14.77300000      24.42160000       0.00072779      -0.01435040      -0.01646990
H       16.47180000      17.66990000      23.98800000      -0.03071510      -0.05708620       0.04241580
O       12.63980000      21.68890000      14.95990000      -0.00794865       0.03380070       0.05443860
H       12.23130000      22.68250000      16.56530000       0.06514820      -0.01387630      -0.00440799
H       10.89900000      22.04030000      15.00310000      -0.06078620      -0.02155170      -0.05588450
O        0.43333200       8.66576000      18.08950000      -0.08248810      -0.07107980       0.06093040
H       25.13590000       9.63334000      16.82180000      -0.01314650       0.04740890      -0.05378000
H       23.57910000       7.72786000      18.56490000       0.10522200       0.02724120      -0.00532035
O       13.77500000       4.23687000      15.13440000       0.01655170      -0.05895870       0.00737558
H       14.35740000       4.89741000      16.66250000       0.02741800      -0.01572070       0.04977870
H       13.32270000       5.82293000      14.74130000      -0.04040610       0.07933250      -0.05821370
O       19.10310000       2.29795000      17.14730000       0.03800840      -0.03976260       0.08748810
H       20.48280000       2.92591000      18.37680000      -0.03573660      -0.00558182      -0.04530290
H       18.75400000       3.28651000      15.78550000       0.00159649       0.04231060      -0.04666870
O       21.46200000       9.77881000       0.44732500       0.06187970       0.03490040      -0.00250499
H       19.94310000      10.17610000      24.97230200      -0.03936590      -0.01548980       0.00222034
H       21.68420000       8.38187000       1.51829000      -0.01493670      -0.01977460       0.00843959
O       20.30470000      22.49420000      16.02150000      -0.00265066       0.07469130       0.05276020
H       19.76670000      24.43470000      16.14160000       0.01952940      -0.05627160       0.00486564
H       19.84920000      22.16670000      14.39090000      -0.01443710      -0.02001620      -0.05463320
O        0.75097500       9.18458000       8.32382000       0.05822610      -0.03537300       0.00235135
H        2.26020000       7.96295000       8.59952000      -0.04657890       0.03317870       0.00032611
H        1.69474000      10.43940000       7.32019000      -0.01273580      -0.00010635       0.00335523
O       16.27140000       7.79112000      19.38100000      -0.01073460      -0.00644247       0.01263390
H       17.46660000       8.81696000      18.61790000       0.00360907       0.05848390      -0.05747790
H       17.71710000       7.13014000      20.16100000       0.00623618      -0.05090820       0.04102760
O        0.82077000      22.34650000      13.99080000       0.00507077       0.00086200      -0.03600010
H       24.44460000      21.92490000      13.77860000      -0.03107700      -0.01100060      -0.04479610
H        0.41696300      22.30710000      15.67240000       0.02631460       0.01064860       0.07945890
O       19.87590000      14.71120000       4.00349000       0.02183880      -0.02511770      -0.02417710
H       19.13700000      15.41140000       2.51558000      -0.02451450       0.01653350      -0.00413899
H       20.88440000      13.47290000       3.01966000      -0.00349435       0.00206788       0.02330560
O       11.93190000       1.64078000       6.47102000       0.05043180      -0.01587200       0.00730942
H       13.09930000       1.02256000       7.83193000      -0.02110260       0.01100020      -0.01646250
H       10.38850000       2.04792000       7.24434000      -0.02593710       0.00303875       0.01058790
O        2.76054000      17.98450000      22.37020000      -0.06936630      -0.09891070       0.01076180
H        3.27599000      18.41150000      23.96950000       0.02726480       0.03322140       0.04721440
H        1.64039000      16.29870000      23.23730000       0.04364740       0.06404920      -0.05681440
O       11.59560000       8.57479000      12.36050000      -0.03577020      -0.06585760       0.01958960
H       12.19910000      10.17750000      12.58460000       0.02575030       0.04931770      -0.00625303
H       11.72490000       7.87428000      10.70800000       0.01229550       0.01682550      -0.01176060
O       16.75540000      10.67220000      24.30770000      -0.02099130       0.01048200       0.12396000
H       16.55180000      10.26480000      22.72260000      -0.01582400      -0.02908840      -0.12182500
H       15.39780000       9.62576000      25.15931900       0.02580960       0.01973960      -0.00442527
O       20.84780000       9.41477000      12.09280000       0.08140490       0.01406220      -0.03161420
H       19.79830000       9.85180000      10.67880000      -0.00914637      -0.00091964      -0.00654700
H       22.69480000       9.62812000      11.21280000      -0.06892480      -0.00503833       0.03744360
O       18.96260000      12.08360000      16.38450000      -0.08845690      -0.00698422       0.05785220
H       19.80440000      11.55120000      15.00130000       0.05978690      -0.00684265      -0.04729520
H       18.95070000      13.08250000      17.87220000       0.03525270       0.01346420      -0.01121500
O       21.11830000      15.61500000      20.07650000      -0.05839730       0.02252380      -0.03527380
H       21.54060000      14.72640000      21.51250000       0.03618370      -0.01198860       0.02441130
H       22.31130000      16.43690000      19.02390000       0.01973050      -0.01077430       0.00915021
O        9.47549000       1.21548000       0.90322700      -0.00845414       0.09494890       0.01855130
H        9.80078000      24.92270000       0.85628100       0.00990441      -0.11684900      -0.02541120
H       10.45820000       1.47441000       2.41324000      -0.00211771       0.02187900       0.00611536
O        4.80282000      23.58350000       9.60510000       0.07784480      -0.00118067       0.03409970
H        6.50000000      23.55460000      10.66210000      -0.03861930      -0.00392049      -0.04964520
H        3.96762000      23.64310000      11.17350000      -0.03950400      -0.00069098       0.01525930
O       18.52180000       3.71232000      24.42630000      -0.00753516       0.09222220      -0.00932312
H       17.74940000       4.15645000       0.66136000      -0.00671909       0.02079830      -0.00071090
H       18.68620000       2.08160000      24.73510000       0.01536580      -0.11333100       0.00573627
O       13.94550000      13.41210000      14.07590000       0.04150870       0.02514330      -0.01168970
H       15.66440000      13.98160000      14.52200000      -0.00593862      -0.02836050       0.05246390
H       14.60660000      14.26240000      12.60320000      -0.04230280       0.00406609      -0.04236760
O        4.53968000      17.74850000       7.31503000       0.03494550      -0.07097170      -0.11408600
H        5.05570000      18.06890000       5.35947000      -0.01802550      -0.00405431       0.08098590
H        4.18464000      19.24910000       8.00952000      -0.01598140       0.08067710       0.03015770
O        0.99256600       2.45606000      12.29180000      -0.02857990       0.05680570      -0.04286560
H        0.71422900       0.78158100      12.60270000       0.00711597      -0.05262910       0.02236890
H        2.40486000       3.24638000      13.01210000       0.01853850      -0.00640132       0.02337180
O        3.30853000      12.26540000       5.05606000       0.05586990       0.00962904       0.09181940
H        2.67708000      12.46220000       3.50960000      -0.02856040       0.01609680      -0.08190170
H        4.62759000      13.55930000       5.45855000      -0.02474950      -0.02452260      -0.01164770
O        7.88863000      11.44390000       0.08412700       0.02976060       0.02704200      -0.04186170
H        7.55423000      10.90470000      23.69620000       0.01159350       0.01326880      -0.01062920
H        6.57869000      10.54080000       0.72742600      -0.04620480      -0.03116940       0.04671560
O       16.18580000       5.67493000       4.41248000       0.03912030       0.01328300      -0.02114520
H       17.45310000       4.29435000       4.32381000      -0.03890660       0.01102340       0.02558650
H       14.51610000       5.41408000       5.03685000       0.00529655      -0.02492220       0.00365060
O       23.53840000       6.12246000       4.76486000       0.00376318       0.00153599       0.01898760
H       23.01040000       4.67949000       5.74777000      -0.00864902      -0.00735158      -0.01324220
H       24.41520000       6.99957000       6.13489000      -0.00195563       0.01313370      -0.00968575
O        7.80008000      17.83060000       1.33430000       0.01253700      -0.09318700      -0.01316950
H        9.14928000      17.06450000       2.37520000      -0.00332828       0.02877080       0.00760442
H        7.61647000      16.03450000       0.48294900      -0.00934560       0.05886080       0.01144600
O       10.63630000      21.39900000      23.43100000       0.04447010      -0.00523240       0.03759900
H       12.48060000      21.76850000      23.67270000      -0.03674630      -0.00199287      -0.01581960
H       10.42150000      20.42240000      25.01660000      -0.01210900       0.00838483      -0.02208050
O       24.79150000      13.62640000      14.57540000      -0.03422120       0.04723290      -0.01876710
H        1.09298000      13.58500000      13.96710000       0.05311840      -0.01972550      -0.00590513
H       24.42050000      15.18380000      13.55270000      -0.01564820      -0.02580680       0.02381720
O        0.14922700      12.71520000      22.67060000      -0.02140180      -0.02672950       0.01108690
H       24.46060000      11.16280000      22.83630000       0.00149522       0.02256260       0.01386240
H        1.27346000      12.03140000      21.47270000       0.01900250       0.00409715      -0.01923730
O       12.06870000       8.66427000       1.50157000       0.03853150      -0.00690041      -0.04749050
H       11.09530000       9.99760000       0.81344700      -0.01887060       0.00864004       0.00193531
H       11.50020000       8.32278000       3.11367000      -0.01323800      -0.00137247       0.04051090
O        2.01905000       2.35941000      22.57160000      -0.00241951       0.02502990      -0.00702838
H        2.44548000       2.76100000      24.27100000       0.00561305       0.01354670       0.01446110
H        1.59594000       0.65602800      22.65960000      -0.00742769      -0.03611440      -0.00782119
O       12.87620000      16.79910000       4.48952000       0.04314610       0.02799370      -0.02687880
H       14.02960000      18.19060000       3.85346000      -0.03777940       0.00195041       0.03113480
H       13.69000000      15.81680000       3.19699000      -0.01099550      -0.02940000      -0.00188970
O        3.05263000       4.77816000       2.44389000      -0.01060770      -0.00391875      -0.04722610
H        1.70833000       6.01873000       2.84262000       0.03245870      -0.03094720       0.02340990
H        4.46008000       3.91164000       3.23006000      -0.02051110       0.02916220       0.02215610
O        7.15191000      23.75340000      14.96220000      -0.01937980      -0.06196540       0.08023790
H        7.93968000      24.87896200      16.19960000      -0.00938447       0.00676353      -0.01234720
H        6.43303000      22.32350000      16.38780000       0.02855610       0.05524580      -0.06540400
O       22.83870000       4.98959000      20.60020000      -0.07313330       0.01097560       0.00950109
H       21.77400000       4.64429000      22.09170000      -0.02894940       0.02414250      -0.01709550
H       24.01050000       4.11496000      21.50060000       0.09425400      -0.03486480       0.00778723
O        5.22740000      13.25130000      12.49850000       0.01850280      -0.02597950       0.01458270
H        6.28435000      13.12920000      14.01140000      -0.00833280       0.01939820      -0.00331122
H        5.58003000      11.53100000      11.93150000      -0.01255100       0.00546601      -0.01018550
O       13.75320000      22.15100000       3.33064000       0.07259430       0.01305610      -0.04452210
H       13.38330000      23.42030000       4.62952000       0.01346340      -0.00569528      -0.01757760
H       15.63810000      22.55190000       2.27604000      -0.08005050      -0.00210786       0.06039420
