192
Lattice="24.44621 0.0 0.0 0.0 24.44621 0.0 0.0 0.0 24.44621" Properties=species:S:1:pos:R:3:force:R:3 TotEnergy=-1103.5115 cutoff=-1.0 nneightol=1.2 pbc="T T T"
O       19.23670000       3.51925000      16.93662000       0.06101540       0.04415120      -0.01401460
H       17.79600000       4.45154000      17.27912000      -0.03694570       0.02674100       0.01140730
H       18.83600000       1.86395000      16.98532000      -0.01848940      -0.07238370       0.00579894
O       22.71919000      19.57679000       9.96043000      -0.00754162      -0.07076510       0.18340100
H       24.21569000      18.78839000       9.77227000       0.06852330      -0.02244730      -0.02121620
H       22.15479000      20.44949000       8.77494000      -0.05569610       0.09724730      -0.16472300
O        9.98618000       0.83877100      16.85590000      -0.04919720       0.03916480      -0.00672436
H        9.73641000      23.54423500      17.21940000      -0.01151830      -0.00942881      -0.00012155
H        8.17736000       1.76285000      16.81440000       0.05098000      -0.03798570       0.00183507
O       18.54458000      13.75041000      24.32221500      -0.02343820      -0.05501230       0.02713910
H       18.25940000      15.45146000      23.86289500      -0.00347967       0.02258180      -0.00109098
H       17.08071000      12.95161000       0.93341400       0.03450450       0.02769900      -0.02218590
O        8.65196000       7.51079000      21.64390000      -0.02812640       0.04924760       0.03688740
H        8.87719000       7.61799000      23.53280000      -0.01722660      -0.00030856      -0.02261240
H        9.71003000       6.21989000      21.24210000       0.04347310      -0.05088640      -0.02422070
O       23.21380000      13.48300000       8.28171000       0.02545820       0.03507320       0.01390520
H       23.49235100      13.03210000       6.53571000      -0.00932335      -0.00200090      -0.00674083
H       24.24961300      15.08280000       8.44635000      -0.02039330      -0.03638530       0.00111975
O       13.83609000      23.89830000      12.74170000      -0.07621800      -0.08321830      -0.01930430
H       13.75579000      22.06750000      11.58320000       0.01140330       0.08507000       0.05192550
H       12.02839000      23.76970000      13.68220000       0.06944970       0.00465487      -0.03073750
O       23.14091000      24.32832000      12.85580000       0.09370180      -0.07186180      -0.08846630
H       23.02145000      22.85562000      11.37650000      -0.00342406       0.05218430       0.06769720
H       21.64728000       0.31891000      13.47670000      -0.09209390       0.01746960       0.02394630
O        6.48509000      14.43252000      16.79640000      -0.00945700      -0.03244850       0.00818977
H        7.38669000      13.62122000      18.18220000       0.00266973       0.01480070      -0.00783429
H        6.40239000      16.21362000      16.92720000       0.00566606       0.02119630       0.00779470
O        6.58616000      20.84342000      21.89742000      -0.04956740      -0.02941390       0.03663910
H        8.19519000      20.05752000      21.87632000       0.02837700      -0.00918652       0.00249047
H        5.66782000      19.71962000      23.31952000       0.02483220       0.03749550      -0.03398980
O        9.32611000       4.25408000       5.28407000      -0.12159100       0.02982730       0.06177960
H        8.63601000       2.59658000       5.34007000      -0.02294320      -0.01282790      -0.00698166
H       10.85431000       3.96734000       4.78053000       0.14294900      -0.02025010      -0.04866710
O       13.92961000       2.62579000       3.95728000      -0.10343900      -0.08183760       0.00764905
H       14.58996000       2.17879000       2.37548000      -0.00382229      -0.03015710      -0.04960470
H       15.18075000       3.64959000       4.16818000       0.10794600       0.11224400       0.04618860
O       16.06640000      19.78392000       9.12691000       0.06560940       0.01431310       0.02411280
H       17.07230000      18.27142000       9.43841000      -0.01158750       0.00529634      -0.00809809
H       14.52350000      19.31702000       8.49381000      -0.05161460      -0.02293700      -0.01871990
O        3.57179000      17.25090000       9.20369000       0.01115420       0.03993340      -0.04439630
H        4.67669000      18.33160000       7.91259000      -0.03443270      -0.03654300       0.04283820
H        4.54119000      15.94900000      10.01819000       0.00835926      -0.00023889       0.00239261
O       23.82870800       1.09540000      21.76909000       0.02640920      -0.01482730       0.03499660
H        1.22257000       1.00658000      22.55598000      -0.05408600       0.00129578      -0.02090630
H       22.96255000      24.07542200      22.64097000       0.02590030       0.02529700      -0.01511120
O       23.06982000      23.08610000       5.53279000      -0.05841950       0.01624350       0.02722970
H       23.19342000      23.09120000       3.69069000      -0.01387970      -0.00092492       0.01261150
H       21.14142000      23.53380000       6.12229000       0.06641800      -0.01229620      -0.04107370
O       19.06212000       9.49961000      20.55350000       0.04470160       0.03684810       0.03785990
H       17.75832000       8.70662000      19.71810000      -0.04584030      -0.01438230      -0.02710910
H       18.57732000      11.09580000      21.39470000      -0.00036701      -0.02080780      -0.00845106
O       10.71971000      12.44428000       4.24541000      -0.03060520      -0.05169110      -0.02334210
H       10.40261000      12.28408000       6.06311000       0.00247871       0.00617378      -0.00281062
H        9.73871000      10.95128000       3.42001000       0.01996520       0.04059040       0.01931900
O       17.40068000      22.58190000      16.73509000       0.04296370       0.00091395       0.09062390
H       16.38318000      23.31970000      15.62839000      -0.06768630       0.04165750      -0.06888480
H       18.01398000      21.13330000      15.95129000       0.01676960      -0.03864970      -0.02192140
O        5.57998000       0.35571000       4.71469000       0.05489710      -0.00641384       0.13012800
H        4.33308000       1.35181000       5.62622000      -0.00053130      -0.00272437       0.01816590
H        5.01488000       0.45521000       3.19941000      -0.04328510       0.00521540      -0.15286000
O       11.04129000      18.78950000       9.17871000      -0.01275640      -0.06902050       0.02003720
H       10.85889000      16.75850000       8.97441000       0.00567616       0.06158740       0.00753116
H       10.98949000      18.96130000      11.07871000      -0.00536354       0.00040853      -0.02763720
O       14.93060000       6.94932000      12.95998000      -0.10463300       0.08828670       0.02757470
H       13.58661000       6.25994000      12.06038000      -0.02647750      -0.02210950      -0.02208070
H       16.33664000       6.14024000      12.77438000       0.12445400      -0.06844400      -0.02905990
O        4.72518000       0.83250400      23.62084400      -0.01011410       0.01894370      -0.00143027
H        5.69693000      23.91797500      22.92222000       0.00395918      -0.01772520      -0.00356932
H        5.20175000       2.25442000      22.59799000      -0.00059039       0.00268882       0.00553783
O       20.47199000       4.73785000      24.14660000       0.04202600      -0.03522830      -0.08337140
H       19.92259000       6.14881000      23.07370000       0.00099358      -0.00575347       0.01175380
H       21.53699000       3.57239000      22.60150000      -0.02903520       0.04092910       0.06991100
O       22.63199000      12.28048000       3.36419000      -0.19538600      -0.01993070       0.06330020
H       21.30956000      13.04458000       2.15019000       0.01979660      -0.01876980       0.02697210
H       24.00288500      12.56268000       2.62609000       0.17035300       0.03326170      -0.09613370
O       10.47240000      13.32119000       9.19840000      -0.08383340       0.00439329       0.00825666
H        8.74391000      13.04439000      10.30230000       0.06073720       0.01136370      -0.02319180
H       11.96600000      12.99179000      10.09740000       0.02010010      -0.00760983       0.02618990
O        5.91131000      19.98650000      16.79410000      -0.04488150       0.01291390      -0.01101680
H        4.29041000      20.63660000      15.96870000       0.04419760      -0.01427390       0.02494410
H        5.79491000      20.45290000      18.60860000       0.00017639      -0.00183503      -0.01002790
O        7.86589000       7.94729000       2.04378000      -0.03717930      -0.00690638       0.05822390
H        8.29249000       6.78229000       3.54338000      -0.00764983       0.01767020      -0.03846570
H        5.88929000       8.20959000       2.23258000       0.05160250      -0.00371546      -0.01886560
O       15.22270000       7.10349000      17.64100000       0.01926600       0.01425220      -0.06264880
H       14.79390000       6.65629000      15.70580000       0.00959047       0.02393270       0.05154060
H       14.21820000       6.04979000      18.59030000      -0.03166660      -0.03342030       0.03239520
O       23.82164700      21.62522000       0.36479000       0.06382480      -0.06227840       0.05884460
H       23.03472000      19.98172000       0.21089000      -0.02464530       0.00970286      -0.01359900
H        0.89653500      20.75002000       1.44779000      -0.03621010       0.04551860      -0.04144440
O        2.10835000      14.06660000       0.13147500       0.04670100      -0.05076520       0.10253000
H        3.10585000      12.36670000       0.65936700      -0.03885380       0.05471360      -0.02927820
H        2.00979000      14.27480000      22.86684000      -0.00309907      -0.00677188      -0.06636150
O        4.91219000       2.88364000      16.48390000       0.04191980       0.11609400       0.05465770
H        3.51937000       1.97977000      16.66670000      -0.08263690      -0.08482810      -0.00418877
H        4.06121000       4.21749000      18.07610000       0.04487180      -0.03167930      -0.04804390
O       12.57572000       3.29298000      20.31452000       0.01136550       0.01730250       0.02610610
H       11.83392000       2.07738000      19.17722000      -0.00114501      -0.00915666       0.00136573
H       13.47412000       2.62478000      21.79862000      -0.00842028       0.00099238      -0.02266520
O        2.21829000       2.76818000       7.56631000       0.02584220       0.02914720       0.02359250
H        2.64532000       3.07838000       9.36331000      -0.00238508      -0.00121882      -0.02441050
H        0.83296600       1.67898000       7.54631000      -0.03112340      -0.02320170      -0.00366337
O       15.61332000      11.52789000       3.44197000       0.00509105      -0.00974481       0.00274434
H       13.81062000      11.28919000       3.63312000      -0.00685554       0.01434880       0.00017092
H       16.26032000       9.86529000       3.80395000       0.01151260      -0.00427236      -0.00215410
O       23.13060000      10.40739000      13.20250000       0.03932820       0.01825730      -0.10442300
H        0.41449000       9.98199000      12.28220000      -0.02513940      -0.00587219       0.04137540
H       22.85070000      11.31629000      11.45620000      -0.01674560      -0.00665273       0.05217870
O       10.48511000       4.18191000      10.70030000      -0.03913740       0.06627170      -0.07961890
H       10.01291000       4.14201000       8.73490000       0.02369770      -0.00036367       0.06024970
H       11.03741000       2.62581000      11.15880000       0.02342560      -0.06304280       0.01332110
O        3.58692000       5.94013000      20.51520000      -0.12066700      -0.05244740      -0.00271303
H        2.54992000       7.32661000      19.98390000      -0.02732800      -0.00140721      -0.00514537
H        5.01892000       6.71457000      20.37690000       0.14717300       0.05682310       0.00283384
O        3.01241000       9.59051000      10.62059000      -0.01093800       0.02376500       0.01488460
H        3.95261000       8.20541000      11.26419000       0.01079890      -0.03071800       0.00105129
H        2.40701000       9.18341000       8.98709000      -0.00446704      -0.00569469      -0.02170910
O       17.68740000      14.42560000       8.23839000       0.01539870      -0.01038070      -0.01098010
H       19.51550000      13.88210000       8.15509000      -0.03612290       0.01202510      -0.01022090
H       16.75250000      14.06010000       6.64569000       0.02562110      -0.00101434       0.02212830
O        0.81941000      23.37621000      17.44509000      -0.01197350       0.01048220      -0.02090410
H       24.38382000       0.06154300      18.64699000       0.00791511      -0.01442800      -0.00343647
H        0.02601000      23.64704500      15.73899000       0.01040410      -0.00386848       0.02070050
O       20.65969000       3.87483000       7.51449000       0.02405090       0.00547680      -0.02379520
H       20.32739000       4.82395000       8.95189000       0.00614147       0.02722180       0.04655750
H       19.30979000       2.74586000       7.61529000      -0.02167980      -0.03683970      -0.00750332
O       14.06941000      15.95512000      16.90329000       0.01753720       0.01015140      -0.04314940
H       15.75145000      16.59272000      16.45450000      -0.00284330       0.00071306       0.02169130
H       13.79611000      15.37052000      15.14329000      -0.00958427      -0.01111960       0.02387490
O        5.13348000       5.00451000      11.43601000      -0.03538860       0.02371220      -0.02193420
H        6.63508000       4.69461000      10.54381000       0.02535180      -0.00756055       0.00213443
H        5.11568000       4.20671000      13.01711000       0.00897390      -0.01608160       0.03130660
O       17.77800000      23.84368100       6.45863000      -0.01885280      -0.00344045      -0.00316529
H       16.25150000       0.12565800       5.63414000       0.02076310      -0.01259820       0.01015110
H       17.29640000      22.17022000       7.17178000      -0.00188963       0.01823280      -0.00232742
O       11.13082000      18.24754000      22.58909000      -0.01347420      -0.03588650      -0.09994930
H       10.98262000      16.40914000      21.87919000       0.00843788       0.05160420       0.03166990
H       11.37002000      18.36192000      24.30449000       0.00524926      -0.01596180       0.06150480
O        5.90303000      13.45161000      11.94691000      -0.03548030      -0.05384730      -0.00419142
H        5.60287000      13.28281000      13.75991000       0.02120980       0.02016810       0.00141090
H        4.72947000      11.92521000      11.50611000       0.02695950       0.03729900      -0.01279840
O       19.35380000      18.28690000      15.21890000       0.05131290       0.00354886       0.00054094
H       20.20410000      17.82910000      13.61450000      -0.01508940       0.01004300       0.02204680
H       20.95140000      18.76630000      16.39230000      -0.03921390      -0.02683010      -0.02850540
O       10.56580000      19.71240000      14.40341000      -0.05707090       0.04357430      -0.05158840
H       11.83470000      18.92450000      15.19669000       0.05860780      -0.04401280       0.04866430
H        8.94884000      19.27520000      15.11250000       0.00009558       0.00117719       0.00452270
O        0.67739000       8.01808000       5.50029000      -0.07158380       0.05575630      -0.00571830
H       23.29580000       9.00648000       5.07149000       0.07595670      -0.03738550       0.01031310
H        0.23729000       6.37408000       6.04359000      -0.00529603      -0.02327290       0.00638552
O       17.85571000       6.20716000       4.20103000       0.05041300      -0.01981010      -0.00166198
H       18.95116000       5.79653000       5.73785000      -0.02395030       0.00638006      -0.02492070
H       19.11851000       5.47883000       2.93404000      -0.03399830       0.01977080       0.01434120
O       15.72110000      21.48082000      21.84500000      -0.02918310      -0.00848216       0.02476120
H       14.02820000      20.71422000      21.84950000       0.00980844      -0.00250180       0.01166660
H       16.01780000      21.54902000      20.11380000       0.01427970       0.01236050      -0.04793940
O       19.81676000      18.63320000      22.75379000      -0.01797140       0.01120600      -0.03651230
H       20.72210000      18.23900000      21.15229000      -0.01312580       0.00946602       0.02308540
H       18.25653000      19.69270000      22.23059000       0.03592420      -0.02465810       0.01823850
O       11.70009000      17.63789000       3.12759000      -0.02544420       0.02396530       0.04373820
H       10.70899000      18.61139000       4.48169000       0.02588900      -0.02887390      -0.03984740
H       11.31889000      15.86739000       3.46931000      -0.00030661       0.00511533      -0.00163993
O       23.20890000      18.39190000      18.23652000       0.03319590      -0.01284960       0.01149750
H       24.20570000      16.81000000      18.70142000      -0.01883070       0.02058140      -0.00669838
H        0.04049000      19.72970000      18.14892000      -0.01425850       0.00167789       0.00223698
O        4.33091000      18.56969000       1.62322000      -0.02439750      -0.08371900       0.04889970
H        3.53351000      16.66839000       1.12114000       0.02161400       0.05910130       0.01086290
H        4.75831000      18.21339000       3.57144000      -0.00454252       0.02279290      -0.07126450
O        6.88344000      19.81782000       6.01579000      -0.05823530       0.05447720      -0.10427800
H        7.84154000      19.49152000       7.36139000       0.06761090      -0.00021344       0.07272740
H        7.00725000      21.64802000       5.20859000      -0.00893879      -0.05150120       0.04055970
O        2.85416000       8.80239000       1.39157000       0.01907820       0.01113830      -0.00702208
H        2.50824000       7.95089000      24.24366400      -0.00368826      -0.00508606       0.02577310
H        2.20596000       8.12299000       3.04941000      -0.01453710      -0.00083854      -0.02300670
O       14.68498000      12.84971000      12.65760000      -0.01540290      -0.01276560       0.00256927
H       14.40871000      11.07451000      13.01480000       0.00434866       0.00485821       0.00353380
H       16.35331000      12.92401000      11.99320000       0.00734370       0.00372582      -0.01026920
O       19.99387000       6.16021000      12.24820000       0.00328458       0.02992400      -0.01584010
H       20.79553000       7.85727000      12.49570000      -0.00586657      -0.02841710       0.00347324
H       20.43322000       5.10970000      13.63920000       0.00376827      -0.00432246       0.01506240
O        1.45229000      14.18921000      19.58624000       0.02529760       0.01449860      -0.03774140
H        2.94209000      14.46091000      18.46385000      -0.01298120      -0.00270744       0.02033130
H        0.52599000      12.93141000      18.57884000      -0.00536381      -0.01081630       0.01514950
O       23.69040000       9.98383000      18.22549000       0.08071790      -0.00881311      -0.06801520
H       22.11310000       9.97331000      18.83039000      -0.08948480      -0.00378843       0.04817790
H       23.34300000       9.73072000      16.38639000       0.01178850       0.00774706       0.02404410
O       16.34910000       1.63029000      24.15679000       0.00331960      -0.02350720      -0.01750790
H       18.10760000       2.15579000      24.15579000      -0.00657377       0.01196650       0.00190507
H       16.34370000      24.44470000      23.22439000      -0.00491068       0.01317340       0.01461990
O       10.63741000      12.97280000      20.46500000       0.03417840       0.00445381      -0.01132320
H       12.35651000      12.64610000      19.84560000      -0.01407420       0.02121810      -0.01239180
H       10.64281000      11.53750000      21.51350000      -0.02312930      -0.02206160       0.02091370
