192
TotEnergy=-1102.96396000 cutoff=-1.00000000 nneightol=1.20000000 pbc="T T T" Lattice="24.16374000       0.00000000       0.00000000      -0.00000100      24.16374000       0.00000000      -0.00000100      -0.00000100      24.16374000" Properties=species:S:1:pos:R:3:force:R:3:Z:I:1
O              24.46240000     19.17700000     13.35890000     -0.05709730      0.00894769     -0.06481410       8
H              23.90510000     20.28840000     14.61490000      0.01605700      0.02005920      0.04843810       1
H              22.88670000     19.68420000     12.29220000      0.04191090     -0.02556630      0.00819024       1
O              17.63460000      7.83528000      6.67045000     -0.00311386     -0.06051080     -0.03054860       8
H              18.14420000      8.74919000      8.09046000      0.01137200      0.00054003      0.02586400       1
H              18.07320000      5.91123000      6.84620000     -0.01395640      0.05741140      0.00209491       1
O               3.98149000      3.13959000     16.90280000      0.00963504      0.02270360      0.02303010       8
H               5.16290000      2.41067000     15.59500000     -0.01000820      0.02940400      0.03567050       1
H               4.50965000      4.48522000     18.39030000      0.00342511     -0.05194940     -0.05762260       1
O              12.30270000     17.32390000     13.10040000      0.08048540      0.03175330      0.02910480       8
H              14.07660000     16.49840000     13.15730000     -0.04946970      0.02246690     -0.00171613       1
H              11.38150000     16.04060000     12.40390000     -0.03472480     -0.05048200     -0.02353530       1
O              10.81500000      8.19951000     20.25890000      0.02075230      0.00242139     -0.15768700       8
H              11.04890000      8.41607000     21.84930000      0.01899860      0.02046660      0.15111400       1
H               9.23485000      7.50264000     20.09850000     -0.04475470     -0.02127770     -0.00151570       1
O              23.48070000     17.96800000      4.39067000     -0.04260850      0.03056670     -0.04286620       8
H              21.85120000     18.35900000      3.32854000      0.04846200     -0.02145840      0.03584400       1
H              23.62990000     16.17740000      4.60389000     -0.00404522     -0.00044321     -0.00356033       1
O               3.70901000     11.91610000      3.10919000     -0.12266600      0.10795600     -0.05428550       8
H               4.78927000     10.79970000      3.45911000      0.12257100     -0.16158800      0.01194350       1
H               4.13251000     12.72550000      4.60501000     -0.00727870      0.04985760      0.04011660       1
O              18.83550000     20.90470000      1.64994000     -0.03965510      0.00071894     -0.02944430       8
H              20.33230000     21.81560000      1.04160000     -0.01346370      0.00659472     -0.00434075       1
H              17.32470000     21.28730000      0.39348000      0.05618540     -0.01029650      0.03343810       1
O              15.09780000     13.24010000     15.70090000      0.00008611     -0.04686070      0.01573250       8
H              13.77140000     13.10010000     17.09270000      0.02769910      0.00463935     -0.04104790       1
H              15.64940000     11.44600000     15.20950000     -0.02892670      0.04635380      0.02134980       1
O               0.44147500     23.00630000     17.16540000     -0.04197770     -0.09345840      0.07610930       8
H               1.23217000     22.00700000     18.88340000     -0.00869815      0.04816520     -0.06493960       1
H               1.44826000     24.22240000     16.50920000      0.05135300      0.04567910     -0.01051430       1
O              23.72430000     22.38450000      7.05454000     -0.03802600     -0.03376520     -0.02968890       8
H              24.10190000     20.79450000      5.68061000     -0.03339500      0.05866140      0.06448660       1
H              21.77480000     22.72650000      7.41536000      0.07179010     -0.02664000     -0.02377250       1
O              23.73350000     10.14660000     17.47790000      0.07457970     -0.07577680      0.00213065       8
H              22.16360000      9.87668000     18.05330000     -0.08682600      0.00262000      0.02963860       1
H              24.06410000     11.64440000     16.76010000      0.00493907      0.07229100     -0.02870060       1
O              19.84280000     24.05980000     15.39810000      0.01517700      0.05465850      0.07679220       8
H              21.51340000     23.74830000     16.22470000     -0.01387400      0.00762523      0.00022447       1
H              19.83980000     22.98650000     14.09640000     -0.00748083     -0.06354520     -0.06963880       1
O              10.98900000      0.87027000     17.57190000      0.09999680     -0.08379090     -0.10630700       8
H              11.28350000     -1.08040000     17.58960000     -0.00688571      0.05711260      0.00826111       1
H               9.88814000      1.31257000     18.70020000     -0.09052380      0.02871690      0.09450810       1
O               0.73586400      5.99964000     14.34890000     -0.04858280      0.03518690     -0.01929320       8
H               1.61396000      4.89130000     15.49060000      0.00876994     -0.00127944      0.01494050       1
H              -0.31580800      7.41135000     15.14540000      0.03756800     -0.03162640     -0.00183660       1
O              15.31310000      3.02285000     15.74500000      0.05880510     -0.03202850     -0.01036680       8
H              16.77180000      1.61071000     15.78990000     -0.06037810      0.04755580      0.00377193       1
H              13.63610000      2.40369000     16.12700000      0.00744738     -0.01818110      0.00991115       1
O               7.02935000      8.39540000      5.11585000      0.03485000      0.00536537      0.05500700       8
H               7.71170000      9.72007000      6.41139000     -0.01804610     -0.05226980     -0.04057940       1
H               7.46589000      6.61616000      5.86272000     -0.01534230      0.04566250     -0.01689150       1
O               6.13275000     20.03370000      6.15225000      0.16551800     -0.16053900     -0.26589400       8
H               6.41023000     17.99650000      6.04696000     -0.02417380      0.07542150      0.01922280       1
H               5.35800000     20.47780000      7.36591000     -0.15163500      0.07781170      0.25130100       1
O              14.31170000     11.23260000      3.74957000     -0.04946320     -0.07345320     -0.00297739       8
H              14.90120000     10.11210000      5.28771000     -0.02127740      0.02973800     -0.05508530       1
H              12.62700000     10.22150000      2.81033000      0.06823080      0.03027150      0.04278290       1
O              19.03240000      7.46213000     11.80120000     -0.01583830      0.03058760      0.05159650       8
H              18.51130000      7.56706000     13.61710000      0.00325111      0.00290076     -0.03420780       1
H              19.73420000      5.80472000     11.79000000      0.01085460     -0.02301260     -0.01382350       1
O               1.23190000     14.28840000     13.79840000     -0.07029500      0.01572570     -0.05838840       8
H              -0.42330100     13.37170000     12.89970000      0.05718360      0.02063160      0.02238830       1
H               0.81003400     16.11250000     13.10220000      0.01390080     -0.04152820      0.03236440       1
O              17.43040000      3.01304000     23.61710000      0.14584900      0.12652800      0.12221500       8
H              19.17970000      2.13718000     23.73070000     -0.04075690      0.03916410      0.00966463       1
H              16.87330000      1.80236000     22.80190000     -0.10446500     -0.16209500     -0.13190400       1
O              14.80870000     16.13510000      4.24478000      0.00298877      0.00460234      0.00160728       8
H              13.50450000     17.35010000      3.81934000     -0.00433628     -0.00540437     -0.00287952       1
H              14.20860000     14.41660000      3.87241000      0.00097755      0.00391664      0.00419715       1
O               7.19897000      1.06199000     20.99030000      0.02457960      0.03378510      0.03518180       8
H               6.13301000      2.21418000     21.89870000      0.00953610      0.00811851      0.01032140       1
H               5.93330000      0.31257700     20.08490000     -0.03369180     -0.03605830     -0.03571180       1
O              16.06250000     22.82260000     21.54030000      0.17889500     -0.04121910     -0.04709970       8
H              16.00660000     21.66790000     20.14390000     -0.00167716      0.00817153      0.00235661       1
H              14.57380000     23.14450000     21.99600000     -0.18509400      0.03152790      0.04629860       1
O              12.02600000      8.07278000      8.64899000     -0.04610050     -0.00321478      0.03633300       8
H              11.02650000      7.03137000     10.09790000      0.05097310      0.01645070     -0.04574190       1
H              13.70680000      7.50222000      8.30694000     -0.00057619     -0.01197170      0.01080420       1
O              18.23010000      8.05355000      0.24366100     -0.02302940      0.01128090      0.00430720       8
H              17.69780000      6.15876000      0.00889700     -0.00688014      0.05730620      0.00739258       1
H              16.98170000      9.46974000      0.86411500      0.02680570     -0.06524240     -0.01016430       1
O               6.12147000     14.27970000      7.15176000     -0.04247370     -0.00521202      0.07781410       8
H               7.82722000     13.84350000      7.18563000      0.03986900     -0.00479838     -0.00338922       1
H               5.74031000     13.78850000      9.11806000      0.00626325      0.01015290     -0.07309500       1
O              12.20180000      1.08864000      7.71710000     -0.00372522     -0.03586030     -0.10163100       8
H              12.12470000      2.02450000      9.09234000     -0.00519380      0.06740360      0.09417900       1
H              12.71590000     -0.51658800      8.22691000      0.00862861     -0.03304840      0.00404141       1
O              15.55610000     17.06420000     20.58440000     -0.00286164      0.17210400     -0.15252400       8
H              15.77600000     15.91410000     21.58520000      0.00403332     -0.19308900      0.17304200       1
H              17.32030000     17.18790000     20.20090000      0.00402372      0.01641580     -0.01901710       1
O               3.55821000     21.35920000     20.94770000     -0.20035100      0.10382400      0.05506020       8
H               4.83028000     20.68640000     20.34490000      0.18286800     -0.10314600     -0.08386000       1
H               3.18352000     20.90560000     22.65150000      0.01448200     -0.00528359      0.01490930       1
O              12.86630000     20.12230000     17.61300000     -0.10609300      0.13243600     -0.15161900       8
H              13.62760000     19.19760000     18.62590000      0.09328620     -0.13329800      0.13449200       1
H              12.46070000     19.19250000     16.07320000      0.01022280     -0.00359845      0.00619956       1
O              19.29060000     20.76150000     11.71220000      0.21205100      0.18127700     -0.11317900       8
H              19.00740000     20.52080000      9.97058000      0.00464107      0.00710674     -0.02702770       1
H              18.25400000     19.86270000     12.31850000     -0.21256500     -0.19289600      0.13693900       1
O              21.47420000      2.93898000     11.59930000     -0.00488732      0.01014720      0.04465690       8
H              22.59410000      4.15764000     12.76820000     -0.02122500     -0.04194060     -0.02671190       1
H              20.31360000      1.81939000     12.74550000      0.04153630      0.03547000     -0.01776520       1
O              21.89940000      4.41624000      2.80185000      0.05744650     -0.01578660     -0.04090880       8
H              21.23780000      3.63790000      4.22991000     -0.03157290     -0.00616841      0.03058400       1
H              21.09480000      5.83075000      2.10766000     -0.02336680      0.01925610      0.00600462       1
O              18.96620000      2.44303000      6.89996000      0.07734850      0.08795470      0.05262910       8
H              20.19500000      2.49869000      8.50865000     -0.04033580      0.00163217     -0.04526950       1
H              18.37050000      0.84606700      6.85541000     -0.03356740     -0.07415000     -0.00286013       1
O               7.40640000      3.36781000      5.68818000      0.16865000      0.08109840     -0.10132900       8
H               9.08087000      2.60072000      6.12035000     -0.02315970      0.01156470     -0.01013200       1
H               6.36053000      2.59102000      6.57991000     -0.14020200     -0.09669960      0.11382000       1
O               5.13218000      6.76384000     20.83640000      0.07091700     -0.10848300      0.06845850       8
H               4.12340000      6.49173000     22.32390000      0.00996582     -0.00961672      0.01229360       1
H               4.23087000      7.85277000     20.06130000     -0.08264290      0.11986100     -0.08484040       1
O              13.92890000     18.97890000      8.50174000      0.01339060     -0.01403080     -0.06452540       8
H              13.47040000     18.78190000     10.24220000     -0.00636607     -0.02367580     -0.00055392       1
H              13.91540000     17.43810000      7.17081000     -0.00188065      0.04213040      0.06016440       1
O              12.86120000      3.39061000      2.71999000     -0.07360220      0.06234040     -0.10199000       8
H              14.30310000      3.06299000      1.84536000      0.05611140      0.00092796     -0.05658440       1
H              13.37540000      2.62135000      4.03862000      0.02826280     -0.06968310      0.16153600       1
O              10.71750000      4.29699000     11.69340000     -0.09968440     -0.03244660     -0.04677870       8
H              11.13380000      4.16594000     13.34060000      0.03258230      0.00064405      0.06965150       1
H               8.70045000      3.23139000     11.99580000      0.06099180      0.02376580     -0.02360740       1
O               2.52980000      7.10616000      9.43118000     -0.03890570      0.06167360     -0.09779530       8
H               1.80709000      6.80535000     11.00650000     -0.02671460     -0.00236504      0.03552420       1
H               1.19079000      8.40309000      8.26066000      0.06319310     -0.06315700      0.06652740       1
O              17.36300000     15.87680000     11.97310000      0.00440207     -0.02085230      0.01201850       8
H              16.98100000     14.60490000     13.31230000      0.00976323      0.01743400     -0.01911050       1
H              18.44560000     15.12980000     10.68500000     -0.01288560      0.00532148      0.01074280       1
O              11.18480000     23.17030000     -0.28684500      0.13709800     -0.07788220      0.03847660       8
H               9.81107000     23.95110000     -0.55575100     -0.15880400      0.07030200     -0.05864780       1
H              11.59980000     24.18520000      1.12512000      0.02281010      0.00456126      0.02122960       1
O              10.50760000     12.93640000     10.66550000     -0.03199820     -0.03409200      0.01423160       8
H               9.03224000     12.20160000     11.73850000      0.04485730      0.01359700     -0.03332940       1
H              11.49330000     11.47850000      9.94886000     -0.01999060      0.01582700      0.01468890       1
O              14.48460000      8.00071000     16.42040000      0.09662000      0.16151000     -0.08497610       8
H              14.81470000      6.47781000     16.03750000      0.03549130     -0.16939700     -0.03600220       1
H              13.32710000      8.11740000     17.51470000     -0.12989200      0.00609281      0.12268000       1
O               3.21944000      1.55465000      8.05789000     -0.01863080     -0.05887140     -0.01106380       8
H               1.75195000      0.24994600      7.87910000      0.03493110      0.00755625     -0.00545433       1
H               2.16714000      2.87866000      8.48571000     -0.01257370      0.05028480      0.01392380       1
O              19.54510000     14.65650000      6.85942000      0.01433210     -0.01074910     -0.03885150       8
H              20.63600000     14.01940000      5.43232000     -0.01146650      0.00694423      0.03402990       1
H              18.09460000     15.13150000      5.85416000     -0.01064070      0.00582893      0.01129620       1
O               3.90283000     12.70590000     21.95560000      0.05460060      0.04972300      0.04779330       8
H               2.86064000     12.02400000     23.30930000      0.01280080      0.00864501     -0.00822659       1
H               5.28057000     13.87990000     23.00960000     -0.06287940     -0.05626000     -0.04140730       1
O               7.19202000     19.59300000     17.22030000      0.00324815     -0.01432400     -0.00562927       8
H               8.88365000     19.42900000     16.61150000      0.00499878      0.01187120      0.00515949       1
H               6.69357000     17.82780000     17.01680000     -0.01378950      0.00525901      0.00725276       1
O              18.58820000      9.44422000     19.35870000     -0.01910990      0.00223870      0.00264675       8
H              16.93800000      9.33855000     18.24190000      0.04624730     -0.00844028      0.05305650       1
H              18.54870000      9.09828000     21.30240000     -0.01709720      0.00055589     -0.05408230       1
O               3.12290000     20.88720000      1.61909000     -0.12578100     -0.04112720     -0.07711990       8
H               1.88917000     19.70930000      2.43442000      0.01597220      0.01411810     -0.01633120       1
H               4.22831000     21.05860000      2.80761000      0.10443200      0.02054020      0.09956310       1
O               9.93255000     13.11980000     17.70050000      0.12912000     -0.09043690      0.02245410       8
H              10.15110000     11.19600000     18.12230000     -0.02795060      0.06647810     -0.00792634       1
H               8.40594000     13.79000000     17.55350000     -0.09433990      0.01874060     -0.01094500       1
O               5.09645000     14.84540000     17.15260000     -0.03672140      0.02410000     -0.05374100       8
H               3.40380000     15.09380000     16.11960000      0.04811210     -0.01885130      0.03852360       1
H               4.77920000     14.25820000     18.80300000     -0.02000770     -0.00923853      0.01703390       1
O               5.27639000     11.23090000     11.87300000      0.00119087      0.04356880      0.00881342       8
H               4.67457000      9.53483000     11.69670000     -0.01310810      0.00357480     -0.00419684       1
H               3.99645000     12.48190000     12.54990000      0.01159260     -0.03727040     -0.00572122       1
O              22.45750000     12.83780000      3.06252000      0.17143500      0.08660900      0.03783560       8
H              24.04560000     11.89950000      2.50079000     -0.01883880      0.03302040      0.02617200       1
H              21.40940000     11.79730000      2.50284000     -0.14974700     -0.12597400     -0.06747960       1
O              22.48950000     23.82080000     -0.12182700      0.00548413      0.07277820      0.01387350       8
H              22.79170000     25.79180000      0.43676500     -0.00280682     -0.07772660     -0.01221520       1
H              24.07350000     22.97320000     -0.38493600      0.00353478      0.01401400      0.00338082       1
O              10.38220000     18.93080000      3.72500000     -0.01832680     -0.01296020      0.04064270       8
H              10.56350000     19.91650000      2.28273000     -0.00304403      0.02449400     -0.02860280       1
H               9.07580000     19.71800000      4.86382000      0.02872820     -0.00525731     -0.02343150       1
O               5.31334000     20.43260000     11.63530000      0.00185478      0.09476180     -0.03310230       8
H               3.86624000     19.64740000     12.04420000     -0.08664060     -0.01591930      0.02334550       1
H               6.31673000     19.11600000     11.76670000      0.08552640     -0.07701120      0.00712960       1
O               6.55014000      1.35742000     12.00100000     -0.03915370      0.22323600     -0.00509627       8
H               6.83131000     -0.16577000     11.93100000      0.06070700     -0.24565200      0.02533410       1
H               5.74056000      1.26208000     10.36210000     -0.02588120      0.03131120     -0.00920430       1
O               3.77503000      4.30645000      1.64728000     -0.00153495     -0.02298330      0.06346370       8
H               2.11147000      4.05427000      2.42984000      0.00379285      0.00824362     -0.02055310       1
H               4.71206000      3.80507000      3.28572000     -0.00429574      0.01712720     -0.05230650       1
O              21.99270000     11.89370000     10.52590000     -0.02226750     -0.08074700      0.06097370       8
H              20.79440000     10.27940000     11.24560000      0.04463960      0.05752310     -0.03271560       1
H              21.08800000     12.72940000      9.25492000     -0.02043960      0.01286690     -0.02175070       1
O              18.11640000     21.64390000      6.64535000      0.03604660      0.01960240     -0.01665630       8
H              18.51300000     21.28100000      4.87263000     -0.00119583      0.00341900     -0.00223593       1
H              16.85930000     20.48000000      7.01544000     -0.04332210     -0.02688620      0.01780760       1
O              10.58730000      7.66752000      1.07149000      0.01971290     -0.03235740      0.02066120       8
H               9.14022000      7.46469000      2.28880000      0.02658730      0.00416474     -0.01649880       1
H              11.77070000      6.08955000      1.24086000     -0.04575520      0.04673360      0.00828541       1
