192
TotEnergy=-1103.37779000 cutoff=-1.00000000 nneightol=1.20000000 pbc="T T T" Lattice="24.71479000       0.00000000       0.00000000      -0.00000100      24.71479000       0.00000000      -0.00000100      -0.00000100      24.71479000" Properties=species:S:1:pos:R:3:force:R:3:Z:I:1
O              25.54540000     -0.73767300    -37.71440000     -0.02063960     -0.02065190      0.04186680       8
H              23.72910000     -1.09623000    -37.50430000      0.00497517      0.00515717     -0.01671510       1
H              25.87630000     -1.54321000    -36.02200000      0.00990542      0.01697690     -0.02843040       1
O              51.65330000     50.33690000      1.20879000     -0.00385066     -0.08983530     -0.02699600       8
H              52.84970000     51.03560000      0.13189600      0.03599840      0.03950810     -0.01832900       1
H              52.06120000     48.49690000      0.45130800     -0.02946360      0.05120260      0.04367270       1
O              14.38750000      0.56820000     17.92150000     -0.01350970     -0.18601500     -0.03552960       8
H              14.78070000      2.12226000     18.30440000      0.03601900      0.12164300      0.04603580       1
H              15.51010000     -0.83415200     18.56190000     -0.02318520      0.04173390     -0.00571897       1
O              -4.10280000    -10.48110000     -3.58167000     -0.06217350      0.08986390     -0.06070590       8
H              -2.95715000    -11.29150000     -2.65947000      0.07039450     -0.04732090      0.05736900       1
H              -3.34172000     -8.76585000     -3.85223000     -0.01612550     -0.03587370      0.00442835       1
O               8.34994000     34.83010000     19.60230000     -0.01269220     -0.02526230      0.02724040       8
H               8.28066000     33.25200000     18.72790000      0.00716740     -0.00054822     -0.02027670       1
H               7.67188000     34.14770000     21.18430000      0.00574182      0.01581860      0.00725119       1
O              -8.59370000     12.18180000      6.89246000     -0.01160700      0.10296300      0.02411720       8
H              -9.02929000     14.13460000      6.25452000      0.01245150     -0.07160580      0.02658580       1
H              -8.46109000     11.20690000      5.46873000     -0.00110079     -0.03013280     -0.04949110       1
O              44.06090000     30.28790000     13.67720000     -0.00133082      0.02471130      0.00196101       8
H              45.81040000     29.84440000     13.46450000      0.00449767     -0.00716807     -0.00223529       1
H              43.06000000     28.77810000     13.61520000     -0.00075412     -0.01503710      0.00341438       1
O               1.09092000    -36.72400000      5.97434000     -0.07405530     -0.12569100     -0.24710300       8
H               1.86030000    -38.66500000      5.15434000     -0.02444530      0.06794980      0.04174200       1
H               1.76117000    -36.37970000      7.34626000      0.10196100      0.04420360      0.19768200       1
O              33.00480000    -35.42470000     16.72620000     -0.02743230     -0.00700215      0.05403240       8
H              32.30550000    -36.41330000     18.33680000      0.03029580      0.02426030     -0.06225930       1
H              34.13190000    -36.58330000     15.92580000     -0.00043247     -0.00753538     -0.00109700       1
O              11.16790000    -30.03800000    -25.78640000     -0.02776800      0.00745101     -0.00577516       8
H              12.92630000    -30.12690000    -25.22270000     -0.01864920     -0.01828670      0.01275280       1
H               9.75548000    -30.90800000    -24.82590000      0.04468000      0.00625177     -0.00563908       1
O             -12.76420000      5.23771000      8.75097000     -0.01928390     -0.04927250      0.03729800       8
H             -11.32800000      5.82461000      9.70245000      0.00016805      0.01432750     -0.00449671       1
H             -13.58020000      3.97487000     10.04420000      0.01281850      0.03371430     -0.02971180       1
O             -10.84730000     29.21190000     49.73470000     -0.11393600      0.04023480     -0.02519400       8
H             -12.27490000     28.14070000     50.35330000      0.01309400      0.02236150     -0.01589670       1
H              -9.62395000     28.24940000     50.27780000      0.10706000     -0.07057490      0.03313030       1
O               9.38921000    -31.15900000    -17.36660000      0.05497200      0.08546640      0.23418500       8
H               8.98082000    -31.66170000    -18.76430000     -0.07510270     -0.08715540     -0.22915800       1
H               7.84630000    -30.89120000    -16.31390000      0.01679170     -0.00361340     -0.00707800       1
O              27.53270000     14.09240000     35.33760000      0.12645900     -0.01676990     -0.05578340       8
H              26.13110000     14.10410000     36.32070000     -0.04758560     -0.01899360      0.05322030       1
H              29.19110000     12.88480000     35.62990000     -0.06806630      0.03400470      0.00613804       1
O               3.14128000      3.45137000      5.75937000      0.00264410     -0.02528670     -0.00489362       8
H               4.24330000      2.30575000      6.72797000     -0.00162964      0.01352010      0.00922553       1
H               2.61607000      2.20650000      4.51153000     -0.00286505      0.00827343     -0.00745835       1
O             -34.60780000     25.40960000     33.76220000      0.03761620     -0.04407880     -0.00592563       8
H             -33.03860000     25.54140000     32.71100000     -0.01109410      0.00048433      0.01220640       1
H             -35.57390000     26.79560000     33.33980000     -0.02745870      0.04478580     -0.01342390       1
O             -33.68940000     12.88780000     23.57730000      0.05673120      0.03612780     -0.04348710       8
H             -34.52100000     13.12150000     21.88980000      0.01409540     -0.00495796      0.03065410       1
H             -31.81750000     13.65950000     23.13220000     -0.06406820     -0.02881520      0.00953245       1
O             -21.85290000     64.29030000    -22.97630000      0.09050910      0.18697000      0.17446400       8
H             -22.80970000     63.80100000    -21.49100000      0.00707967      0.00494162      0.02092350       1
H             -22.38570000     63.23840000    -23.93880000     -0.09264360     -0.18430000     -0.19333800       1
O              69.84290000     21.94780000     36.88780000     -0.01455130      0.03167000     -0.01117530       8
H              68.73080000     23.41940000     37.35880000      0.00430521     -0.01672860     -0.00582773       1
H              69.89980000     20.88690000     38.34230000      0.01040280     -0.01135940      0.01259820       1
O              59.98010000    -13.22640000      1.92985000      0.02686050      0.01759790     -0.04896420       8
H              58.80290000    -14.08910000      0.73516300      0.01676640     -0.00250600      0.01938500       1
H              61.49250000    -12.74390000      0.80495100     -0.03719310     -0.01374250      0.03514960       1
O              30.04650000     19.33060000    -14.08750000      0.03811680      0.03246440      0.03418900       8
H              30.62610000     19.43960000    -12.28320000     -0.00311031      0.00803608     -0.03082000       1
H              28.95610000     17.96840000    -13.95350000     -0.03195730     -0.04083260     -0.00784369       1
O             -14.91510000      4.74930000     66.21800000      0.07737100      0.04288900     -0.10354300       8
H             -13.68850000      4.62000000     67.40490000      0.03924330     -0.01303560      0.06139940       1
H             -16.50850000      4.48974000     66.50640000     -0.11097400     -0.02969340      0.03960100       1
O              10.64490000     -0.16610700      0.91396300     -0.00729059      0.04315060      0.07370310       8
H              10.42470000     -0.53687100      2.82422000      0.00649383      0.00967787     -0.04349540       1
H              10.61110000     -1.75995000      0.21892400      0.00159609     -0.04865520     -0.02759810       1
O              44.01490000      1.31760000     31.20680000      0.02894120      0.06475400      0.03677930       8
H              45.40960000      2.49899000     32.15140000     -0.04752270     -0.03689010     -0.04111150       1
H              44.91240000     -0.15030900     30.75430000      0.02022350     -0.01512490     -0.00158307       1
O              -3.09843000     62.72610000     33.19790000     -0.05904830     -0.00139144      0.01064590       8
H              -4.53619000     61.86390000     32.46000000     -0.02484750      0.01052410      0.02176380       1
H              -2.11642000     62.14120000     31.87640000      0.06879670     -0.00159030     -0.02835070       1
O               3.74612000     31.55800000     14.60930000     -0.02269620     -0.01424400     -0.00803539       8
H               4.45983000     32.86120000     13.63080000      0.02896130      0.02301890     -0.00621565       1
H               2.43276000     31.08360000     13.34960000      0.00009359     -0.01143450      0.02340210       1
O             -11.73330000     15.78500000     19.80670000     -0.01578870     -0.03832070     -0.04186670       8
H             -12.65360000     14.49530000     18.64040000      0.01739720      0.04950220      0.03587850       1
H             -12.88500000     17.16640000     20.15020000      0.00018896     -0.01138720      0.00127924       1
O              24.20660000     36.65310000     48.44070000     -0.00892880      0.03127970      0.04804070       8
H              23.68020000     35.57200000     49.79300000     -0.00378507      0.00377369      0.01154520       1
H              24.45320000     35.49870000     47.19040000      0.01616070     -0.04454770     -0.05617320       1
O               6.91755000     27.75720000     23.27460000      0.02135000      0.00133881     -0.05887420       8
H               6.77767000     28.03950000     21.13340000      0.00554185     -0.02359450      0.08501280       1
H               8.40406000     26.63090000     23.87410000     -0.03452820      0.02327610     -0.02203790       1
O               1.27631000    -26.80100000     16.99520000     -0.00115212      0.00025924      0.01527040       8
H               0.76343600    -27.49600000     18.63440000     -0.00715488      0.00517782     -0.01034060       1
H               3.00578000    -27.29700000     16.86370000      0.01413710     -0.00779003     -0.00271339       1
O               1.30546000     20.10090000      1.39749000     -0.03215280      0.04675310      0.02329410       8
H               1.85519000     18.41110000      1.74064000     -0.00330238     -0.00912429      0.00923126       1
H               0.14450700     20.89250000      2.77612000      0.03831580     -0.03508070     -0.03363350       1
O              -0.32063200      4.79600000     12.40430000     -0.03488020      0.08624940      0.00005801       8
H              -1.00531000      5.41996000     10.77770000      0.01057930     -0.00046150      0.00320461       1
H               0.13742400      3.21178000     12.03130000      0.02725710     -0.08820430     -0.01537350       1
O             -35.41540000     54.29450000    -29.78380000     -0.03426910     -0.10453900      0.07836620       8
H             -34.94890000     55.81100000    -30.35610000      0.02866580      0.09127090     -0.00716230       1
H             -35.46800000     53.90470000    -27.80100000      0.00568252      0.03257860     -0.05729190       1
O               8.70837000     58.53650000    -18.13010000      0.04317970     -0.00564019     -0.03776980       8
H               9.41192000     56.76360000    -17.89370000     -0.00662795      0.04353990     -0.00555644       1
H               9.93589000     59.49450000    -19.38180000     -0.03780310     -0.03654750      0.03779630       1
O             -41.43910000     40.96760000      2.27506000      0.16035500      0.00272055      0.02327970       8
H             -40.72790000     39.17670000      2.22146000      0.01744080      0.03527440      0.00588957       1
H             -42.91570000     40.40040000      1.96804000     -0.17257900     -0.03140350     -0.02949520       1
O              15.49610000     34.66540000     18.72210000     -0.04178950     -0.00675877      0.02983850       8
H              17.14170000     34.38150000     18.18600000      0.04844510      0.00163414     -0.01682400       1
H              14.68420000     35.58320000     17.43940000     -0.00777188      0.00736435     -0.01650540       1
O             -17.92400000    -14.32560000     11.30820000      0.03654310      0.01589230      0.10412000       8
H             -16.92530000    -14.84280000      9.96667000      0.01810680     -0.01166450     -0.04618430       1
H             -16.35070000    -14.30800000     12.79430000     -0.06101860     -0.00009899     -0.06130670       1
O             -44.36960000      3.38790000     18.44820000     -0.05348740     -0.00912544     -0.07492980       8
H             -45.49080000      1.93279000     17.81380000      0.03194870      0.02763390      0.02918620       1
H             -44.76690000      4.54727000     16.86640000      0.01106670     -0.01171250      0.04084120       1
O             -21.12260000    -16.46580000     28.97480000      0.03426410      0.11257500     -0.01037210       8
H             -19.42060000    -15.74460000     29.57740000     -0.03402110     -0.03610800     -0.00516386       1
H             -21.32590000    -18.16810000     29.18110000      0.00796946     -0.06191180      0.02050740       1
O              15.84050000     17.91490000     25.84170000      0.01207980      0.17135700      0.03369600       8
H              15.26300000     18.00590000     27.55930000      0.00130060      0.00797423      0.01379220       1
H              15.69510000     16.35000000     25.53920000     -0.01261070     -0.17331100     -0.04729350       1
O             -18.59570000     -0.02372900     33.06390000     -0.00681362      0.05684030      0.00228129       8
H             -17.05230000     -0.28906500     32.16370000      0.00650827     -0.03128350     -0.00444730       1
H             -19.53440000     -1.29771000     33.86420000      0.00051446     -0.03133100      0.00215307       1
O              40.26620000      8.72943000     35.68390000     -0.16333300      0.01850240     -0.05600620       8
H              41.60570000      8.29827000     36.42970000      0.15871700     -0.05062550      0.08454500       1
H              40.49080000     10.23420000     34.79790000      0.00498802      0.02870330     -0.02565120       1
O              -2.76846000    -30.93770000     -9.21226000      0.00964694     -0.01518540      0.01190170       8
H              -1.16331000    -30.59080000     -8.27822000     -0.03065560     -0.01274860     -0.02188340       1
H              -2.80269000    -32.68560000     -9.99399000      0.01838670      0.02432680      0.01602380       1
O              59.32690000    -23.27970000    -12.71790000      0.04030710     -0.03523270     -0.16911900       8
H              58.63920000    -23.03550000    -11.27250000     -0.06351510      0.02623440      0.13430500       1
H              57.97870000    -23.91080000    -13.94870000      0.02325130      0.01389830      0.03276070       1
O               9.63519000     -2.25412000     19.29700000      0.00700410      0.08196340     -0.08912920       8
H              11.10500000     -1.27884000     18.40450000     -0.04521040     -0.02216570      0.02453100       1
H              10.48810000     -3.25644000     20.34450000      0.04246780     -0.05685850      0.06779590       1
O             -31.05850000     -2.56231000     47.55650000     -0.02367010     -0.04350630     -0.03750080       8
H             -31.52590000     -3.32493000     45.67350000      0.00625744      0.01138450      0.07545790       1
H             -31.93900000     -3.56026000     48.95050000      0.01742200      0.01415550     -0.04370740       1
O              11.24760000    -15.02030000    -10.58790000      0.03940320      0.03966280     -0.03516030       8
H              11.00510000    -16.47920000     -9.70973000     -0.02043620     -0.05675890      0.03850210       1
H              12.87920000    -15.45740000    -11.45770000     -0.02264900      0.01613690     -0.00251885       1
O              19.33180000     18.95930000      8.07916000      0.01168590     -0.00844928      0.05380340       8
H              19.67230000     19.97710000      9.71127000     -0.01046090     -0.00823148     -0.02945580       1
H              19.98500000     17.29130000      8.65777000     -0.00675683      0.01914290     -0.02196490       1
O              16.90410000     19.44610000     -6.30712000     -0.01656530     -0.06127250     -0.00545912       8
H              15.92410000     17.61540000     -6.25119000      0.03214520      0.07002480      0.00454321       1
H              18.49760000     19.14600000     -7.21382000     -0.01181400     -0.00252084      0.00475048       1
O              22.95340000     46.90780000     30.77510000     -0.02563440     -0.01041970      0.02522410       8
H              21.27530000     46.05720000     30.99550000      0.02972670     -0.00371603     -0.00615195       1
H              23.50700000     46.89920000     32.55560000      0.00311508      0.00217769     -0.02299510       1
O              -8.04329000      9.15567000      2.09886000      0.03458710      0.07858650     -0.02591420       8
H              -8.10789000      9.93443000      0.32552100     -0.00248573     -0.00221200      0.04182180       1
H              -8.61254000      7.58805000      1.80301000     -0.03461190     -0.07661650     -0.00728332       1
O              17.04710000    -23.81960000     13.60750000     -0.03577030     -0.00065584     -0.00524542       8
H              15.72590000    -23.64430000     12.11580000      0.03191790     -0.01522300      0.04149400       1
H              16.19860000    -24.25450000     15.31090000      0.00395821      0.01459290     -0.04701890       1
O              -1.70670000     13.86380000     37.92070000     -0.02013940     -0.01566540      0.02577850       8
H              -1.89487000     12.48130000     39.29410000     -0.01072920      0.03364730     -0.05050530       1
H              -2.86617000     13.81390000     36.37910000      0.02704820     -0.02266730      0.03261020       1
O              48.41400000     44.84760000     -3.45520000     -0.02932930     -0.00322685      0.00966958       8
H              49.72060000     45.01670000     -2.10440000     -0.03762470     -0.00823934     -0.00132784       1
H              46.56050000     44.72890000     -2.79943000      0.06615530      0.01457400     -0.00590353       1
O              24.49250000      8.14229000    -29.48910000     -0.03906700     -0.00303000      0.03813940       8
H              25.86080000      7.84980000    -30.49540000      0.04546020     -0.00414639     -0.04096070       1
H              24.18980000      6.52354000    -28.66020000     -0.00520223      0.01004540      0.00595826       1
O             -14.17200000     47.82030000      6.24227000      0.07233340      0.09030140      0.02130740       8
H             -12.46690000     48.29830000      7.23883000     -0.05470640     -0.00657903     -0.03130470       1
H             -14.17430000     46.11700000      6.47335000     -0.01283130     -0.07335260      0.00927459       1
O               6.35906000    -29.29120000     40.87210000      0.01248130      0.11386400     -0.01543130       8
H               6.32065000    -30.90030000     41.19440000     -0.01336190     -0.13514200      0.01765620       1
H               7.78811000    -28.83630000     41.96230000     -0.00388696      0.02039310     -0.00591926       1
O              -1.55470000     30.28470000      7.37711000      0.03389930      0.02903190     -0.08111040       8
H               0.05500300     29.71710000      6.31255000     -0.04580570      0.00647204      0.05111920       1
H              -2.07982000     31.79850000      5.95847000      0.00631291     -0.04808970      0.04528930       1
O             -10.12040000     -7.36601000      6.17133000      0.02312660      0.02938730      0.05341640       8
H             -11.82790000     -7.26907000      6.85554000      0.00042925     -0.00337198     -0.00369498       1
H              -9.05948000     -6.41920000      7.57852000     -0.02034360     -0.03037920     -0.05077230       1
O              -4.32602000      9.66289000     16.94630000      0.01939740     -0.00037714      0.04033840       8
H              -3.28179000      9.35598000     18.60230000     -0.02562000     -0.00176368     -0.06258760       1
H              -4.54259000      8.13852000     15.91860000      0.00698741      0.00124217      0.01362380       1
O              21.84020000    -16.31630000      3.49134000      0.00690627     -0.01820870     -0.03315250       8
H              22.26450000    -17.49530000      2.01680000     -0.00786364      0.02060780      0.03065810       1
H              20.00010000    -16.17090000      3.48014000      0.00311223      0.00234890     -0.00782424       1
O              23.13940000      5.02595000     48.58490000     -0.05456380      0.00443516     -0.00147134       8
H              21.29920000      4.19715000     48.71320000      0.06290670      0.00162900      0.00133127       1
H              24.51260000      3.87231000     48.85300000     -0.01248710     -0.01388880      0.00758184       1
O              19.16830000     26.53570000     49.77070000      0.00455566      0.00770916     -0.00684669       8
H              19.51420000     26.37780000     51.57610000      0.00139712     -0.01013440     -0.01710790       1
H              19.50250000     24.99500000     48.69780000     -0.01153160      0.01366340      0.02846660       1
O             -17.39420000      8.09425000     24.75050000     -0.01959490     -0.05497600     -0.02211220       8
H             -17.56210000      6.06213000     24.25590000      0.00553308      0.05586060      0.01645670       1
H             -18.99820000      8.55450000     25.52720000      0.00806180     -0.00927984     -0.00284457       1
