192
TotEnergy=-1102.99110000 cutoff=-1.00000000 nneightol=1.20000000 pbc="T T T" Lattice="25.01000000       0.00000000       0.00000000      -0.00000100      25.01000000       0.00000000      -0.00000100      -0.00000100      25.01000000" Properties=species:S:1:pos:R:3:force:R:3:Z:I:1
O               6.28355000     10.21700000     22.57690000      0.00134234      0.00332156     -0.00198059       8
H               4.83895000     11.14450000     23.06250000     -0.00743775      0.03610060      0.01063050       1
H               5.42123000      8.66750000     22.75090000      0.00584128     -0.04031340     -0.00541876       1
O              20.15940000     20.90550000      3.46032000      0.01102760      0.02729680      0.05056480       8
H              19.39180000     19.76170000      2.43567000     -0.03218570     -0.07001250     -0.02650030       1
H              20.47770000     21.99770000      2.14041000      0.01842040      0.04690060     -0.02387150       1
O               3.15574000     16.90400000     15.81590000     -0.00335694      0.00406214      0.00861611       8
H               1.39827000     16.86670000     15.24130000      0.01404730      0.00644719      0.01897850       1
H               3.31740000     17.39650000     17.61710000     -0.01212700     -0.00847846     -0.02460330       1
O              12.12120000     16.24460000     21.43480000     -0.03252460      0.07270260     -0.04560260       8
H              12.25420000     18.14590000     21.62840000     -0.01076370     -0.03658900     -0.01933820       1
H              13.12220000     15.92280000     22.76060000      0.04780550     -0.03917320      0.07158150       1
O               5.25806000      5.36841000     10.25720000     -0.02520100     -0.01330230      0.02688830       8
H               6.58094000      6.28527000      9.63092000      0.05242270      0.04490220      0.00336454       1
H               4.74155000      4.83089000      8.67193000     -0.03232980     -0.02948250     -0.02968000       1
O              24.47270000      3.67391000      8.47831000     -0.04013470      0.04006310     -0.10377300       8
H              24.43000000      4.25125000     10.03200000     -0.00708071      0.03948260      0.10721800       1
H              25.28320000      2.19437000      8.50688000      0.05002240     -0.07709200     -0.00110387       1
O              12.28820000     13.25860000      5.95004000     -0.05991440      0.02628340      0.05378480       8
H              12.00860000     14.36820000      7.66475000      0.00734282     -0.04689320     -0.07248180       1
H              10.43950000     12.70020000      5.40136000      0.04930550      0.01995240      0.01191370       1
O              18.93730000     21.12580000     21.44710000     -0.03792430      0.03798450     -0.11409300       8
H              19.36750000     19.62880000     22.02760000      0.02886500     -0.09528760      0.04826010       1
H              18.92720000     22.37670000     22.58520000      0.00328429      0.05695920      0.06193880       1
O              22.60530000     10.66320000     23.93210000     -0.00519365     -0.03979190      0.05586970       8
H              23.23650000     10.96050000     25.71800000     -0.00495066      0.01746130     -0.05892420       1
H              23.09810000     11.65020000     22.53700000      0.01358740      0.02591760      0.00131388       1
O              18.20020000      3.40341000     14.10330000     -0.01097470     -0.11349700     -0.02948620       8
H              18.58810000      4.81471000     14.92200000      0.00969074      0.08240760      0.02267350       1
H              17.31980000      3.32334000     12.51620000      0.00592860      0.01987010      0.00011082       1
O              17.03600000      2.65502000      8.72640000      0.03170450     -0.12317700      0.05191360       8
H              16.68510000      0.80204400      8.05061000      0.00813696      0.06084460      0.02959650       1
H              16.32410000      3.59905000      7.55837000     -0.04615900      0.06550840     -0.07549690       1
O               0.61599000      8.30890000      5.88063000      0.01114130     -0.02489410     -0.00308312       8
H               0.51589400      6.61688000      6.59430000     -0.02602900      0.00315596      0.01667290       1
H               2.07047000      7.74699000      4.94302000      0.01155370      0.02450910     -0.01084000       1
O               0.67725600     20.13190000      4.14959000     -0.10555100      0.02003070      0.03983930       8
H               1.54868000     21.09390000      3.03744000      0.05278280      0.03560570     -0.05136480       1
H              -1.01005000     21.30200000      4.18816000      0.05688650     -0.05897150      0.00752059       1
O               1.66639000      3.29246000     18.16120000      0.00669868     -0.00690278      0.03938870       8
H               3.19810000      2.33252000     18.02740000      0.03110200     -0.01372680      0.03902620       1
H               1.72519000      3.14477000     16.44140000     -0.03751020      0.02059320     -0.07595230       1
O              10.60210000      7.21391000     21.18070000      0.06591600     -0.06247060     -0.00499211       8
H               9.26004000      8.07884000     21.65650000     -0.09417360      0.04312050      0.05026960       1
H              10.98700000      8.26122000     19.84240000      0.03388920      0.01830190     -0.04659170       1
O              22.51480000     14.28430000     11.95770000     -0.00641218      0.04364850      0.05596820       8
H              23.97180000     14.42600000     11.03640000      0.04831480      0.01890840     -0.03169980       1
H              21.70700000     13.05890000     11.06620000     -0.03949040     -0.05627860     -0.02927130       1
O               6.85596000     13.71290000     13.49710000     -0.02372760     -0.01478700     -0.07905760       8
H               8.26565000     13.62650000     14.41350000      0.09297560     -0.00961637      0.03556130       1
H               5.85560000     14.13350000     14.81940000     -0.06608770      0.02329520      0.04389880       1
O               1.29101000     16.23800000      7.45264000      0.02288360      0.00527543     -0.04475540       8
H               3.06624000     15.56300000      7.53690000     -0.03173290      0.02256930     -0.00429135       1
H               1.12162000     17.43780000      5.87337000      0.01490540     -0.02074660      0.05365510       1
O              22.48860000     18.00720000     15.85960000      0.03197700      0.00694656      0.03404770       8
H              21.67570000     17.04190000     14.69290000     -0.01513360     -0.05675420     -0.04779800       1
H              21.47080000     19.40500000     15.64140000     -0.01607460      0.05876230      0.00848599       1
O              13.73890000     20.56880000     18.02490000      0.07600540      0.00310788      0.16556100       8
H              15.92280000     20.75010000     18.98850000     -0.09345450     -0.00569633     -0.05086860       1
H              13.62440000     20.56190000     16.36190000      0.01591350      0.00572281     -0.10408700       1
O              19.44770000     16.57690000      0.16358300     -0.05335330     -0.03018530      0.02286590       8
H              17.79110000     15.51740000      0.52695700      0.05193620      0.02848890     -0.01370850       1
H              20.61850000     15.88700000      1.39727000     -0.00140778     -0.00089322     -0.00819812       1
O               7.12356000     16.62070000      8.97262000      0.01694900     -0.07274500      0.00482247       8
H               6.82806000     18.13040000      9.68667000     -0.02127700      0.09480530      0.01345690       1
H               7.18031000     15.88110000     10.68730000      0.00124776     -0.02206500     -0.01861080       1
O               8.75187000      9.66648000     10.10440000      0.05282440     -0.07822180     -0.02718860       8
H               7.86739000     10.78770000     10.97260000     -0.05529040      0.06582980      0.06533270       1
H               8.70711000     10.33050000      8.48924000      0.00261496      0.01098080     -0.04005870       1
O              22.08090000     14.49400000     19.49410000      0.07821670     -0.04959490      0.03252870       8
H              20.41430000     14.28260000     19.46770000     -0.09670060     -0.02536630      0.00725693       1
H              22.15800000     16.00160000     18.69450000      0.02077910      0.06832630     -0.03530750       1
O              19.25320000      8.46587000     15.89580000     -0.04753570     -0.04022650     -0.02747840       8
H              20.85080000      8.98462000     16.05660000      0.10536900      0.01133010      0.01271390       1
H              18.56780000      9.97563000     16.45220000     -0.04416100      0.03429720      0.01287570       1
O              14.73360000     13.64250000      0.99998800     -0.03461030     -0.07552030      0.02677650       8
H              14.20910000     11.69820000      0.98071500      0.03204020      0.06299710     -0.02044140       1
H              14.08550000     13.75370000      2.74441000      0.00695053      0.02034170     -0.00652580       1
O              21.27970000      9.47111000     10.29130000     -0.14075500      0.01244670      0.11198200       8
H              22.79660000      8.87834000      9.95289000      0.09960950     -0.04571870     -0.01387670       1
H              20.57300000      8.58996000     12.69140000      0.02926250      0.03386630     -0.09773060       1
O               7.80811000      1.04602000      0.44427900     -0.02611930     -0.00378874     -0.05612870       8
H               8.13027000      1.07403000      2.10758000     -0.00940534     -0.00288822      0.09840940       1
H               9.44435000      1.58768000      0.11325900      0.03881500      0.01211010     -0.04043060       1
O               7.63882000     14.55970000     19.46920000      0.02447710      0.05248680     -0.04201950       8
H               9.21762000     14.53560000     20.32010000      0.01129280      0.00180756      0.00741632       1
H               6.64735000     13.39310000     20.21910000     -0.03757200     -0.05027770      0.02950590       1
O              11.30800000     20.67720000      4.65576000      0.01375010     -0.08658720      0.04339410       8
H              11.52810000     18.79680000      4.21803000     -0.00909507      0.04210670      0.03056410       1
H              11.33960000     21.11730000      3.00686000     -0.00273895      0.04183870     -0.07596510       1
O              10.35130000     23.46460000     12.96570000      0.02136200     -0.16870100     -0.06626490       8
H              12.05770000     22.46930000     12.89610000     -0.05111860      0.03703520      0.00637807       1
H              10.62090000     24.89760000     13.67480000      0.02816940      0.13063400      0.06681560       1
O              24.78720000     11.30290000     15.78110000      0.01380480     -0.05267130     -0.02501540       8
H              24.45890000     12.56470000     16.87750000     -0.01305650      0.04227630      0.07781960       1
H              24.44730000     12.37890000     14.42050000     -0.00732740      0.00140286     -0.04813670       1
O               0.75321500      6.11121000     13.21340000      0.03906430     -0.03777770     -0.11497200       8
H               0.98832400      7.07604000     14.55310000      0.00565443      0.06288860      0.08717770       1
H               2.33155000      6.62912000     12.12720000     -0.04357390     -0.02492060      0.02762530       1
O               3.47281000     14.23400000     25.02830000      0.06091810     -0.04262620     -0.01242740       8
H               3.20356000     15.65810000     24.11080000      0.00333572      0.05431370     -0.04991350       1
H               2.11022000     14.37780000     26.02150000     -0.06882560     -0.01141230      0.05948330       1
O               3.25053000     25.19440000      7.30054000      0.06707460      0.03582010      0.02894930       8
H               5.07878000     24.60440000      7.55281000     -0.02856220      0.02590240      0.00817201       1
H               2.75205000     23.75300000      6.54537000     -0.03973640     -0.06140440     -0.03526430       1
O              11.42290000     21.58760000     24.22750000     -0.01373900     -0.07769350      0.01231320       8
H               9.82001000     21.55320000     23.42310000     -0.00770845      0.00797217     -0.00388741       1
H              12.04950000     23.17070000     24.14310000      0.02185260      0.06925390     -0.01048050       1
O              12.59840000      2.33774000     22.66580000     -0.05907300      0.06011020      0.02494820       8
H              14.01990000      2.00775000     21.75540000      0.05209560     -0.00996731     -0.03283180       1
H              12.21030000      4.21187000     22.26460000      0.00640286     -0.04800700      0.00863319       1
O               8.36923000     23.96720000      8.11945000     -0.01355100      0.01928440     -0.00595879       8
H               8.87588000     22.60670000      7.13200000      0.01309350     -0.02105690     -0.04285220       1
H               8.57925000     23.09480000      9.64965000     -0.00052654      0.00690077      0.04336050       1
O              15.32780000      4.80533000      3.21292000     -0.00720412     -0.04834570      0.08017940       8
H              15.08370000      5.26912000      1.63190000     -0.02638150      0.01201930     -0.11073500       1
H              16.39780000      6.13433000      3.57906000      0.03082910      0.03556910      0.03132810       1
O              21.03960000      0.47047900     24.62080000      0.01876630     -0.03002080     -0.12533700       8
H              20.68310000      0.71267500     26.25560000     -0.00118168      0.04217570      0.07661670       1
H              21.91490000      1.77230000     23.54570000     -0.02046350     -0.01066410      0.04734620       1
O              16.51840000      9.03910000      6.58261000      0.02935550     -0.00182874      0.03689070       8
H              15.04930000     10.01340000      6.37507000     -0.02112320      0.01614860     -0.00417740       1
H              17.32070000      9.75600000      8.13435000     -0.00568657     -0.01518350     -0.03114910       1
O               5.34486000      7.13665000      3.30536000      0.11345300     -0.03003380      0.03026050       8
H               4.51468000      6.46488000      1.94226000     -0.02744530     -0.02029600     -0.04683650       1
H               7.20735000      6.07194000      3.14040000     -0.08103000      0.04323450      0.01652200       1
O               4.72139000      5.02317000     22.68100000     -0.02739840      0.06022510      0.01825450       8
H               3.93755000      4.65438000     21.15580000     -0.01482230     -0.00809757     -0.03055630       1
H               5.77214000      3.72862000     23.07770000      0.03872270     -0.05063650      0.01544360       1
O              21.36350000      2.10454000      4.40031000     -0.05623340     -0.01276180     -0.03297220       8
H              20.09140000      3.31743000      4.83390000     -0.03096430     -0.00830731     -0.01538010       1
H              22.36730000      2.93807000      5.48553000      0.08252870      0.01924840      0.05561780       1
O              24.74030000     23.81160000     20.97400000      0.05929550     -0.06250270     -0.00946164       8
H              23.35890000     23.25450000     21.85120000     -0.04682100      0.00804560      0.01814200       1
H              25.07950000     25.38260000     20.36020000     -0.01111260      0.05479330     -0.01474400       1
O               2.54031000     19.24610000     21.06130000     -0.08733140     -0.00740011     -0.12701900       8
H               1.88708000     20.59500000     19.56750000      0.02420310     -0.05481860      0.07439120       1
H               3.57813000     20.16450000     21.99220000      0.06197090      0.06058830      0.05587910       1
O               5.12327000     20.78390000     12.36150000     -0.05174320     -0.06587870     -0.01343170       8
H               6.11393000     21.70350000     13.40050000      0.04774290      0.04407990      0.03886690       1
H               4.39588000     19.51780000     13.59230000      0.01067490      0.01843460     -0.02591620       1
O              13.56120000      9.13299000     16.73110000     -0.00712177     -0.03876530     -0.01164670       8
H              13.42640000      8.41029000     15.04240000     -0.00268498     -0.01455390      0.00848291       1
H              13.83730000     10.76000000     16.17170000      0.00619116      0.05390190      0.00250717       1
O               8.43270000     20.46290000     18.63930000      0.07999450      0.12415400     -0.07214560       8
H               8.12738000     19.15810000     19.58290000     -0.02345400     -0.10958900      0.07174750       1
H              10.39210000     20.82670000     18.69930000     -0.05533360     -0.01406190     -0.00179211       1
O              14.86070000     20.48300000     12.88930000     -0.09941550     -0.01163370     -0.00915592       8
H              15.06250000     20.43100000     11.15000000      0.00378669      0.00202077     -0.04278810       1
H              16.39830000     20.53500000     13.52000000      0.10196600      0.01298520      0.04603160       1
O              19.26300000     23.04150000     16.13970000      0.00217330      0.03614030     -0.08755670       8
H              19.14040000     24.81990000     15.09540000      0.00000089     -0.05740000      0.06276160       1
H              19.15710000     22.93520000     17.89980000     -0.00009454      0.02218760      0.02378100       1
O              13.35880000      6.83859000     11.58190000     -0.05493750     -0.00741101      0.10342500       8
H              14.62200000      6.72037000     10.52590000      0.08565970     -0.00687067     -0.07917850       1
H              11.88180000      7.31667000     10.77710000     -0.03162470      0.01558870     -0.02034410       1
O               6.30417000      1.05155000     17.93990000     -0.02049370     -0.02234060      0.00257727       8
H               6.71154000     -0.66424800     18.35600000     -0.01037120     -0.01449490     -0.00239694       1
H               7.91794000      1.70650000     18.12140000      0.03486090      0.03106550     -0.00266891       1
O              10.11860000      3.62161000      5.15866000      0.05299860      0.04319690     -0.11258400       8
H               9.81656000      3.16091000      6.74942000     -0.00451075     -0.02874700      0.08430140       1
H              11.97490000      4.06565000      4.75222000     -0.04672070     -0.01392160      0.02069800       1
O               7.59595000     11.97920000      3.61787000      0.06379960      0.08395880      0.04287870       8
H               6.91595000     10.47410000      3.28242000     -0.04965340     -0.07185050     -0.02869870       1
H               6.91526000     13.44980000      2.82776000     -0.01179120     -0.01186410     -0.00858815       1
O              12.38910000      3.24656000     16.15900000     -0.01073090     -0.07025590     -0.01359140       8
H              12.87030000      3.73830000     14.51700000      0.00601197      0.02542960     -0.00408409       1
H              12.22000000      4.41889000     17.41950000      0.00183263      0.04443340      0.01890730       1
O              23.61280000     13.29690000      3.84107000      0.00700294      0.03357530     -0.01562840       8
H              24.83390000     14.56810000      4.63676000     -0.02614410     -0.05268320      0.00308389       1
H              23.74450000     11.52270000      4.23591000      0.01706930      0.01192000      0.02321920       1
O              17.68390000      8.69551000     24.46730000     -0.04254700      0.04778920      0.08698130       8
H              19.31500000      9.32218000     24.60040000      0.03702970      0.00888033     -0.01184810       1
H              17.39790000      7.65582000     23.18440000      0.00053072     -0.05963170     -0.07870390       1
O              15.84860000     22.27080000      7.68984000     -0.03985250      0.00042834      0.03397350       8
H              14.83450000     21.55530000      6.40437000     -0.03706190     -0.00649424     -0.00510785       1
H              17.24620000     22.32980000      6.71334000      0.08114910      0.00336918     -0.03040850       1
O              17.66960000      4.94461000     20.35080000      0.05435050      0.01401150     -0.07535280       8
H              17.56090000      5.85958000     18.48010000      0.00495910     -0.03816700      0.08312710       1
H              19.56100000      4.29980000     20.41210000     -0.06538660      0.02907570     -0.00008011       1
O               3.06603000     23.62880000     25.46280000     -0.05319600     -0.05540630      0.08400720       8
H               4.66608000     24.10920000     25.53640000      0.07973150      0.03835470     -0.02621070       1
H               1.72908000     23.56940000     24.40400000     -0.02713830      0.01543080     -0.06221820       1
O              23.14480000      5.04147000     22.08690000     -0.08713010      0.01672610      0.07545500       8
H              23.71910000      6.48697000     22.99080000      0.00775355      0.00558400     -0.00612268       1
H              24.10700000      4.38930000     20.90400000      0.07891830     -0.02432950     -0.07583150       1
O              16.45960000     13.53380000     19.20460000      0.08137210     -0.00342310     -0.06168190       8
H              15.05510000     14.45160000     18.97340000     -0.06706530      0.05160440     -0.02149860       1
H              16.09800000     12.74720000     20.64590000     -0.00942118     -0.05012710      0.08060820       1
O              12.75620000     15.15290000     14.50190000     -0.15422500      0.00906852      0.06802610       8
H              14.07540000     16.15170000     14.33180000      0.08839650      0.06822060     -0.01454440       1
H              11.24190000     16.97890000     15.75060000      0.06317680     -0.07970810     -0.05101460       1
