192
TotEnergy=-1103.07474000 cutoff=-1.00000000 nneightol=1.20000000 pbc="T T T" Lattice="25.94417000       0.00000000       0.00000000      -0.00000100      25.94417000       0.00000000      -0.00000100      -0.00000100      25.94417000" Properties=species:S:1:pos:R:3:force:R:3:Z:I:1
O               9.50969000     11.34820000      9.75350000     -0.04841250      0.03941040     -0.01034360       8
H               7.59786000     11.61680000      9.85230000      0.03976300      0.01272420      0.00150478       1
H               9.47402000      9.67283000     10.24920000      0.01810850     -0.04677960      0.00874729       1
O              15.46380000     14.76500000      2.26995000     -0.03081040     -0.03317930     -0.00300867       8
H              16.33130000     16.03480000      3.10110000      0.02940210      0.02586520      0.01744030       1
H              15.43020000     15.19920000      0.54084300      0.00357277      0.00818265     -0.01773450       1
O              13.60930000     23.21500000     16.36390000     -0.03671480     -0.02299320     -0.02619770       8
H              11.97900000     22.55310000     15.50380000      0.04463130      0.03246920      0.03666100       1
H              13.36190000     24.89690000     17.04760000     -0.00792306     -0.00403629     -0.01008010       1
O              -0.34919400     17.13490000      4.52140000      0.00333979      0.02246160      0.05477400       8
H               0.12109900     15.97640000      5.87805000     -0.00176350      0.02004720      0.00411644       1
H              -0.42428800     15.87060000      3.36506000     -0.00428841     -0.03903190     -0.05872670       1
O              10.04060000     15.66630000      5.20204000      0.02447210      0.04517940     -0.02916600       8
H               9.90890000     14.25250000      6.22186000      0.00261855     -0.03277780      0.02506020       1
H              11.84920000     15.95990000      4.82694000     -0.02604240     -0.01293870      0.00533022       1
O               7.38912000     24.51100000     16.18120000      0.02061090      0.05285270      0.02844730       8
H               6.55557000     23.29770000     15.27860000     -0.02258730     -0.04906600     -0.02736850       1
H               7.42576000     24.05850000     17.93950000      0.00055332     -0.00728863      0.00138765       1
O              24.85900000      9.85300000      9.97964000      0.00798358     -0.09030220      0.03476020       8
H              25.28760000      7.80750000     10.77440000     -0.01959420      0.09714080     -0.04998020       1
H              23.02230000      9.88467000      9.85216000      0.00710358     -0.00022650      0.00869368       1
O              24.69310000     25.13310000     21.71280000     -0.06527730     -0.07920880      0.06131170       8
H              -0.28742200     24.69900000     20.42220000      0.05829510     -0.02394090     -0.08485690       1
H              24.74570000      0.83250100     22.01190000      0.00737634      0.10116300      0.01723200       1
O              19.69990000      7.64852000      0.83396700      0.02124840     -0.06433490      0.00382446       8
H              18.13010000      7.63823000      1.71608000     -0.00361187      0.03349150     -0.01017090       1
H              20.65680000      9.00314000      0.20105300     -0.01232790      0.03188390      0.00742704       1
O               1.13668000      9.14894000     23.31270000     -0.11664200     -0.00094514      0.02105120       8
H               2.81277000      8.94588000     23.24610000      0.07847990      0.00075077     -0.02740250       1
H               0.02647800      9.40477000     21.85320000      0.03233420     -0.00715207      0.00037532       1
O              18.09920000     23.19750000      1.97223000     -0.07916960     -0.08542940     -0.06715120       8
H              18.05940000     21.29180000      2.17950000      0.01003410      0.04668910      0.00325130       1
H              19.13220000     23.91990000      3.07265000      0.07982350      0.03398800      0.06724430       1
O               7.85332000     22.56560000     21.86090000      0.07032190      0.05911890      0.03573470       8
H               6.25556000     21.97980000     22.34520000     -0.02148740     -0.00125591      0.02242240       1
H               8.68485000     23.83580000     23.29440000     -0.04829650     -0.05699680     -0.05964380       1
O               5.34298000     21.10590000      1.26003000      0.12624100      0.02039210      0.01581040       8
H               3.72426000     21.54460000      1.14929000     -0.09131060     -0.00828534     -0.01305420       1
H               6.21493000     19.53110000      0.96813900     -0.03747340     -0.00960447     -0.00069902       1
O               5.72371000     10.77870000      4.58048000      0.00188005     -0.02241730      0.02706430       8
H               6.64044000     11.51510000      3.27651000      0.00724807      0.02489930     -0.03324150       1
H               7.03971000      9.73015000      5.28361000     -0.00975885     -0.00300813      0.00596080       1
O              16.00010000      4.19454000     12.05040000      0.03783650      0.03533530     -0.13677200       8
H              15.57530000      3.68431000     13.54410000     -0.04015420     -0.04251690      0.12874300       1
H              14.49150000      4.05933000     11.00090000      0.01092630      0.00168430      0.00513734       1
O              14.51820000      9.10834000      1.07175000      0.04253700      0.06888040      0.09823500       8
H              13.88600000      8.61686000     -0.38488600     -0.04673190     -0.03155900     -0.09514420       1
H              14.61910000     11.00250000      1.01217000     -0.00034204     -0.03998410      0.00600602       1
O               1.22880000     14.74180000     14.61270000      0.00758538     -0.01279030     -0.01917760       8
H               0.74069000     16.11970000     13.52390000     -0.01385910      0.00190554     -0.00510616       1
H               1.85324000     15.45670000     16.11560000      0.00278737      0.00830412      0.02387290       1
O               4.63202000     11.64400000     11.38540000     -0.09276200     -0.00869170     -0.03872110       8
H               3.22810000     11.09560000     10.05340000      0.05626850      0.00947929      0.03362310       1
H               3.32927000     12.68000000     12.28880000      0.02942180     -0.00182353      0.00766303       1
O              23.51230000     17.62400000     23.41800000      0.00032074      0.06366360      0.02343560       8
H              23.67160000     16.34110000     24.64090000      0.00326194     -0.02506520      0.01132990       1
H              23.71910000     19.23400000     24.52840000     -0.00118950     -0.04206640     -0.03261260       1
O              14.71020000     22.60560000     10.26590000     -0.09350310     -0.08063030      0.02748670       8
H              12.77800000     21.10100000     11.19640000      0.07285790      0.05968110     -0.05619560       1
H              14.91070000     22.98070000     11.99760000      0.01989360      0.02126220      0.02409380       1
O               5.37601000      4.65760000      0.60871200     -0.05469140     -0.01444960     -0.00480836       8
H               3.59156000      4.09008000      0.21920400      0.02487700      0.02315740      0.01867650       1
H               6.09534000      3.46230000     -0.49307000      0.02950340     -0.01167160     -0.01354290       1
O              13.55750000     12.42770000     15.84260000      0.01445610     -0.06288760      0.04448300       8
H              14.00110000     12.88630000     14.23290000      0.00379653      0.03438590     -0.04054510       1
H              12.69060000     13.58040000     16.85130000     -0.01689780      0.02721750      0.00044425       1
O              17.86240000     16.14110000     22.87970000     -0.00043560     -0.09600680      0.04268020       8
H              17.39750000     17.46990000     21.98580000     -0.03444910      0.08467840     -0.05826420       1
H              19.24410000     16.68800000     23.80670000      0.03572540      0.00796283      0.01831600       1
O              14.07660000     25.02440000      4.57026000     -0.01111580      0.01999930     -0.04461400       8
H              14.18810000     24.57120000      6.22760000     -0.00675057     -0.01237040      0.06659480       1
H              15.59580000     24.27500000      3.94615000      0.00851948     -0.00518469     -0.02140330       1
O              10.64640000     17.26030000     23.30800000     -0.00256352      0.02221830     -0.00475173       8
H              12.18590000     18.13170000     22.98520000      0.04453200     -0.02147030      0.00091443       1
H               9.95649000     18.87370000     22.83940000     -0.04389680      0.00299514     -0.00045596       1
O              21.11140000      1.22401000     10.53760000     -0.07751980      0.04135180      0.02923020       8
H              18.96710000      2.41825000     11.12270000      0.08152350     -0.04145430     -0.02509080       1
H              21.99890000      2.26823000      9.34875000     -0.01013410      0.01136800     -0.00428255       1
O              -0.20477700     22.07690000     -0.10171100     -0.00474066      0.02247700      0.07330610       8
H              -0.45524000     22.81280000     24.30980000     -0.00382049      0.01782620     -0.08078350       1
H              25.20640000     23.69680000      0.73427700      0.00698721     -0.03752080      0.00992582       1
O              18.92270000     12.40920000     18.89530000      0.06836560      0.02193430      0.07476140       8
H              17.34920000     12.20580000     18.23110000     -0.06071670     -0.00224589     -0.01414040       1
H              18.86690000     13.22150000     20.71950000     -0.01010830     -0.01904390     -0.06348990       1
O              19.60110000      3.03272000     20.27440000     -0.02242870      0.01576300      0.02049590       8
H              20.25450000      1.51161000     19.64420000      0.01383460     -0.02027670     -0.00783870       1
H              18.40090000      2.47537000     21.58220000      0.01210180      0.00572321     -0.01227620       1
O              10.03550000      5.65454000     10.55860000     -0.00959615      0.08139320      0.12105200       8
H               8.50426000      5.88495000     11.77340000      0.04405180     -0.01584320     -0.03750570       1
H               9.59725000      4.62747000      9.32756000     -0.03688450     -0.06679940     -0.08055480       1
O              18.80250000     18.08720000     10.40710000     -0.01946290      0.07749320     -0.03202040       8
H              17.51840000     19.54770000     10.06960000      0.04208760     -0.03473280      0.01029720       1
H              17.71160000     16.97230000     11.17590000     -0.02468340     -0.03833410      0.02109510       1
O               8.66705000     23.95480000      5.26758000      0.01447180      0.03122000      0.04120140       8
H              10.12270000     24.18810000      4.29755000      0.04592760      0.01150870      0.00390944       1
H               7.83018000     23.14030000      4.02288000     -0.06519500     -0.04612550     -0.04684350       1
O              24.88420000     17.59720000     10.79250000     -0.03037820      0.01488820     -0.00652258       8
H              24.96690000     19.40810000     11.00140000      0.01180760      0.00429774     -0.00022106       1
H              23.04660000     17.55550000     10.41900000      0.02263650     -0.01501300      0.00826410       1
O              22.61610000      8.02743000     19.68160000     -0.01254950      0.01715100     -0.00311674       8
H              21.38040000      9.41416000     19.59040000      0.01033920     -0.00935435     -0.00149882       1
H              21.58420000      6.55935000     19.99580000      0.00307450     -0.00530544      0.00263784       1
O               8.38960000     20.73960000      9.62123000      0.01183160     -0.02901730      0.01783420       8
H               9.23030000     19.52050000      8.58255000      0.00022502     -0.01795910      0.00433203       1
H               8.33320000     21.99820000      8.40112000     -0.00794882      0.04261600     -0.02228740       1
O              14.67130000      4.41335000      5.77327000      0.02366350     -0.01585620      0.06306230       8
H              14.44980000      2.95771000      4.80360000     -0.01077300     -0.01273990     -0.02820390       1
H              14.39870000      6.03555000      5.20867000     -0.01210340      0.02786210     -0.03433650       1
O              -0.56783000      3.87626000     23.98400000     -0.01481680      0.07441090      0.02820490       8
H               0.02878400      5.73581000     23.77750000     -0.00473221     -0.04524190     -0.00612875       1
H              23.90080000      4.38826000     25.06820000      0.02135330     -0.02365750     -0.01950290       1
O               5.64139000      9.81399000     20.13830000      0.04107610      0.06190000     -0.07246610       8
H               5.01419000      8.73159000     18.81880000     -0.00313251     -0.00848984      0.00310221       1
H               6.55103000     11.22040000     18.77700000     -0.03343880     -0.05459610      0.06962540       1
O              24.94530000     23.44430000     11.04150000     -0.15116500      0.01515100      0.01329230       8
H               0.35427400     24.29460000     10.64730000      0.11612800      0.05350160     -0.02488850       1
H              23.62270000     25.09850000     10.90960000      0.03082810     -0.07203240      0.01526470       1
O              10.70900000      7.71240000     22.97000000      0.05070280      0.01231320     -0.07478970       8
H               8.94052000      7.74326000     22.59800000     -0.00422440      0.00470638     -0.00471984       1
H              11.59340000      8.07546000     21.09040000     -0.04680090     -0.01777110      0.07721920       1
O               8.63069000     14.96780000     18.16440000     -0.08012930      0.03130210     -0.01278570       8
H               8.64986000     15.37180000     19.88090000      0.03600820     -0.00432848      0.04707560       1
H               6.87017000     15.87870000     18.21280000      0.04377930     -0.02692080     -0.03240230       1
O              17.74080000     10.25670000     10.12510000      0.01408230      0.07119940     -0.01993540       8
H              18.38800000     10.77870000     11.72160000     -0.00199312     -0.02501260      0.00451112       1
H              17.11250000      8.70675000      9.66993000     -0.01030190     -0.04701330      0.01581300       1
O              11.50170000      7.41581000     17.25320000     -0.04789660     -0.06936710      0.06698440       8
H              10.10260000      6.94254000     16.24680000     -0.01289020     -0.00373905     -0.00525738       1
H              12.40270000      8.50564000     16.37980000      0.05836320      0.07757080     -0.05722740       1
O               3.35536000      1.29960000     13.64910000      0.08479010     -0.04303680      0.06232730       8
H               4.46864000      0.68918200     15.47390000     -0.04170080      0.02484610     -0.08622850       1
H               2.05690000      2.24375000     14.31550000     -0.04120580      0.02187290      0.02378220       1
O              20.68520000      3.98940000      5.68840000      0.04948420     -0.01609220      0.02988870       8
H              19.07890000      3.38139000      6.00939000     -0.04150810      0.00209011     -0.00486356       1
H              20.87890000      5.16302000      4.39239000     -0.01190220      0.02111850     -0.02632060       1
O              24.97760000      4.78200000     15.24630000     -0.00715300      0.02931530      0.00096932       8
H              24.32110000      6.42559000     15.83610000      0.00939352     -0.02092110      0.00640059       1
H              24.40900000      4.78988000     13.53550000     -0.00598642     -0.01035710     -0.00544886       1
O              22.79950000     19.23380000     16.44600000     -0.00736562     -0.00882123      0.01834900       8
H              21.77550000     17.99270000     15.68270000     -0.00806869     -0.00774201     -0.04679750       1
H              22.43730000     18.42260000     18.02380000      0.01882080      0.01686920      0.02794420       1
O               6.39740000      3.28289000      6.08733000     -0.01024350      0.05240650     -0.01954660       8
H               6.73161000      1.61918000      5.77838000      0.01341170     -0.06842370      0.00960315       1
H               6.42323000      3.76095000      4.29658000     -0.00796927      0.01726860      0.01133490       1
O               5.75208000      6.94624000     14.48040000      0.06182840      0.02250850      0.03336080       8
H               4.71368000      5.59270000     14.20310000     -0.03839660     -0.03223520     -0.01935290       1
H               5.52582000      8.47114000     13.58640000     -0.02122970      0.01147450     -0.01740860       1
O              23.50370000     12.26810000     -0.11326400     -0.01792680     -0.01852170     -0.08074120       8
H              24.51440000     10.90020000     25.06640000     -0.00498723      0.02136300      0.00589374       1
H              24.05400000     12.21090000      1.49907000      0.02401390     -0.00180531      0.07944700       1
O              14.68550000      3.04061000     17.66640000      0.01000120     -0.01528230     -0.01179630       8
H              16.46970000      3.48517000     17.53840000     -0.01699500      0.00291658      0.01637470       1
H              13.66680000      4.36506000     18.37420000      0.00777130      0.00682589     -0.00560108       1
O              22.12200000     13.38760000     13.42600000     -0.01410380      0.00818313     -0.02424440       8
H              23.80030000     12.99400000     13.87820000      0.02107570      0.00151445      0.00337536       1
H              21.14170000     12.63390000     14.68180000     -0.01590400     -0.00862427      0.02707440       1
O               2.42204000     17.57400000     19.95960000      0.03089650     -0.05917380     -0.01616810       8
H               1.57756000     17.04220000     21.42310000     -0.01547490     -0.00862473      0.01979840       1
H               2.15175000     19.26370000     19.85410000     -0.01425640      0.06554620     -0.01031730       1
O              15.00920000     20.57470000     21.37280000     -0.00162752      0.03418770      0.03246560       8
H              15.03630000     22.28050000     22.14380000      0.00238128     -0.02253480      0.03449100       1
H              15.13450000     21.57300000     19.92470000     -0.00091481     -0.01233200     -0.06880910       1
O              19.39180000     17.93670000      4.77482000      0.05229200      0.02591000     -0.09970420       8
H              19.08510000     17.87110000      6.42925000     -0.01348700     -0.00531065      0.09410790       1
H              21.19260000     18.56030000      4.60345000     -0.03656960     -0.02009650      0.00536567       1
O               1.28166000     22.55030000     17.37950000     -0.09964010     -0.03778690     -0.00968565       8
H              -0.17700900     21.66350000     16.17620000      0.06321180      0.03626980      0.04779690       1
H               2.77286000     22.68110000     16.50350000      0.03236480     -0.00066862     -0.03376940       1
O               6.45572000     15.88360000      1.06213000     -0.01359740      0.00326220      0.00272117       8
H               7.62837000     15.93270000      2.41810000      0.00745198     -0.00127048      0.02522990       1
H               7.60146000     15.75920000     -0.28136000      0.01371020     -0.00464531     -0.02805430       1
O              10.44540000      1.25510000     -0.36661500      0.00449365     -0.00192900     -0.04585570       8
H              10.15070000      0.79280500      1.25573000     -0.01968860     -0.03904310      0.06134520       1
H              11.07770000      2.83588000      0.09780700      0.01554190      0.04068110     -0.01690900       1
O               1.07720000      4.25968000      8.37888000      0.04496040     -0.00116042     -0.05434170       8
H               2.76790000      3.92355000      7.37805000     -0.05076400      0.01204450      0.02842520       1
H               1.54732000      3.74004000      9.99071000      0.01116140     -0.01464680      0.03151070       1
O               0.20319300     11.66100000      4.78438000      0.00913197     -0.05398710      0.05616620       8
H              -0.98544300     11.04640000      6.87353000      0.07107630      0.00990128     -0.08502390       1
H               1.98215000     10.60150000      4.42386000     -0.07454360      0.04131930      0.03037930       1
O              13.92970000     14.59150000     10.71490000     -0.05313280     -0.07709490      0.01391470       8
H              14.97210000     13.07240000     10.34370000     -0.00142548      0.02421630     -0.00541699       1
H              12.19210000     13.47540000     10.99420000      0.05279610      0.04983900     -0.01724640       1
O              16.27320000     -0.16724900     23.61170000     -0.00321486     -0.01360280      0.02008930       8
H              14.67910000      0.01385300     24.39850000     -0.03762800      0.02367350     -0.01544200       1
H              16.77630000     24.92090000     25.15360000      0.03983840     -0.00868423     -0.00421104       1
O               5.41650000     19.74660000     13.82750000     -0.01577350     -0.00462432      0.03026260       8
H               5.87376000     19.63430000     12.12810000      0.01813810      0.00656566     -0.03410590       1
H               4.18613000     18.42610000     13.96680000     -0.00073662      0.00202925      0.00685783       1
O              22.49390000     25.22300000      4.50499000      0.06714180     -0.09691150      0.07260600       8
H              22.19470000      0.89320600      5.03825000     -0.01350530      0.06473300      0.01354170       1
H              23.58190000     24.51170000      6.38212000     -0.05251150      0.02616570     -0.09029830       1
