192
Lattice="23.40199 0.0 0.0 0.0 23.40199 0.0 0.0 0.0 23.40199" Properties=species:S:1:pos:R:3:force:R:3 TotEnergy=-1102.67282 cutoff=-1.0 nneightol=1.2 pbc="T T T"
O        6.54267000      10.83710000       4.18931000      -0.20892700      -0.26575100      -0.01705970
H        7.34785000      12.10320000       4.14372000       0.17211000       0.25960100      -0.01205360
H        5.01660000      10.97930000       3.05335000       0.03991840       0.00569827       0.01700980
O       19.80830000      21.32500000      14.59440000      -0.02424130      -0.00712360       0.04219440
H       18.98080000      23.05640000      14.67940000       0.01239790      -0.03629670       0.00950163
H       19.28340000      20.15480000      16.09590000       0.01784090       0.04501620      -0.05254200
O        8.11241000      17.50240000      13.49390000      -0.16067300       0.06012650       0.07311550
H        9.53319000      16.95510000      12.94060000       0.13508500      -0.05025700      -0.02932710
H        7.79523000      17.16270000      15.32780000       0.01505010      -0.01073200      -0.03445970
O       21.47360000       1.58758000       7.08580000       0.03700470       0.03505580       0.10229500
H       21.36110000       1.54198000       5.41438000      -0.00948882       0.00960472      -0.08929030
H       20.50900000       0.32234400       7.79934000      -0.02566280      -0.04054140       0.01298930
O       13.28140000      16.08050000      18.64510000      -0.00281395      -0.00959689       0.01998310
H       13.87030000      14.28590000      18.96970000      -0.01080290       0.02789260       0.00612569
H       12.14860000      16.62510000      20.04160000       0.01146630      -0.01731680      -0.02803990
O        2.77213000       6.43762000      15.09820000      -0.01754710      -0.02763650      -0.00019235
H        2.07226000       5.30177000      13.77630000       0.01283490       0.01958250       0.02051550
H        3.32801000       5.19761000      16.46370000       0.00040504       0.02101680      -0.02525850
O        9.34195000       2.49887000      21.07240000       0.14500400      -0.15306100       0.08565160
H        8.22522000       3.47997000      20.57190000      -0.15479500       0.12181200      -0.07460130
H        8.52679000       0.90258800      21.84120000       0.01595850       0.03839570      -0.01549340
O        6.11296000      14.71780000      17.63650000      -0.02196200       0.02790940      -0.02681460
H        5.01149000      14.26280000      16.20040000       0.01184390      -0.00579818       0.01778550
H        6.64111000      13.22520000      18.42880000       0.01185250      -0.03055020       0.00537283
O        9.62102000      16.76650000      22.96240000       0.01634890       0.05801880      -0.03401190
H        8.45947000      15.72060000       0.28551000      -0.04301660      -0.02996600       0.01919790
H       11.13150000      15.91290000      23.19725300       0.02661830      -0.01714830       0.01274210
O       17.30540000      15.25250000       8.60311000      -0.08108090      -0.04140240      -0.02222590
H       17.74460000      14.15120000      10.15220000      -0.01187300       0.01652210      -0.02648770
H       15.31700000      14.59640000       7.87629000       0.09724980       0.02769410       0.04420290
O       13.70390000      20.55860000       9.97726000      -0.03868560      -0.03218410       0.13356200
H       13.35630000      18.80820000      10.74350000       0.01719070       0.04244010      -0.02821750
H       13.93770000      20.43020000       8.34594000       0.02864470      -0.02320370      -0.10858600
O        3.40005000      16.73070000      10.93310000      -0.04432370      -0.03960540      -0.04462590
H        3.14860000      17.89040000      12.18480000      -0.01211750       0.04601570       0.04329320
H        5.09340000      16.69100000      10.59920000       0.05112810       0.00368991      -0.00639028
O        0.42749200      19.11490000       5.36050000       0.08075070       0.01623610      -0.16026800
H        2.05661000      20.09790000       5.39301000      -0.01975640      -0.01216730       0.00705880
H       23.36880000      19.18260000       6.89404000      -0.05579610       0.00295197       0.16766300
O        2.76817000      11.01260000      22.88110000       0.05124500       0.02770120      -0.07321730
H        1.87856000       9.83450000       0.32588100      -0.04159280      -0.05042870       0.03314120
H        3.00442000      10.25840000      21.11380000      -0.01699870       0.02045820       0.04213540
O        4.82973000       2.92144000      17.81450000       0.01579990       0.01360610      -0.01029200
H        3.32009000       2.16011000      18.37150000      -0.01957520      -0.01732900       0.01228590
H        5.18958000       2.05068000      16.24330000       0.01018620      -0.00383945       0.00892996
O       15.20940000       5.64858000       9.46620000      -0.00277884       0.00825974      -0.00126177
H       14.65510000       4.63994000      10.89810000      -0.01266590       0.00183081      -0.00052729
H       16.89990000       6.13396000       9.92294000       0.01145600      -0.00543154       0.00974024
O        3.35970000       4.02122000       4.11114000       0.08758730       0.06635350       0.09099400
H        4.42396000       5.02844000       2.95471000       0.00577795      -0.01214150       0.00538221
H        2.38261000       3.23172000       3.09549000      -0.10331400      -0.07790110      -0.09292570
O       16.74960000       3.83438000       0.59599700       0.04392520      -0.01416930      -0.06311960
H       15.21120000       3.72595000       1.34899000      -0.05995790       0.01302600       0.04594810
H       16.52160000       2.43745000      22.81180200       0.00990780       0.00750465       0.01256620
O        2.30817000       2.02239000      11.68470000      -0.20623300      -0.01576660      -0.01035700
H        3.85065000       1.97969000      11.23610000       0.16123700      -0.00128899      -0.05451590
H        1.12553000       1.46271000      10.12590000       0.04890900       0.02597360       0.05313400
O       12.99270000       6.57125000       3.81124000       0.04696630      -0.01184550       0.07110870
H       15.04680000       6.32165000       6.12304000      -0.08323400      -0.00208492      -0.07212120
H       11.54010000       5.69391000       4.56460000       0.02057130       0.00689833      -0.00603543
O        0.06001000       9.48709000      18.48320000      -0.04909330       0.01547700       0.05320440
H        0.57850600       8.56818000      17.07160000       0.01468890      -0.02848260      -0.03780030
H       21.80320000       8.80241000      19.10560000       0.04127540      -0.00463128      -0.01344360
O       15.60860000      11.65290000      20.23220000      -0.00268594      -0.01643090       0.02759900
H       15.64500000      10.69260000      21.91300000       0.00552800       0.03601880      -0.03391580
H       17.21530000      12.55500000      20.00870000      -0.01086570      -0.01873210      -0.00053360
O       19.14070000      12.52940000      12.42310000      -0.02600670      -0.02616880       0.01538930
H       20.42580000      11.44770000      11.56540000      -0.02863690       0.00430999       0.01330270
H       17.78710000      11.43100000      13.30270000       0.03294330       0.02213290      -0.02665580
O       13.41730000      22.51340000      14.66350000      -0.12181200       0.05736390       0.29012600
H       14.73560000      22.23330000      15.80490000       0.01540010      -0.00332640       0.01967250
H       13.88770000      22.24470000      13.27540000       0.10299700      -0.05577770      -0.30455000
O        8.83670000      18.81560000       7.94771000       0.04267140       0.00851039       0.02113010
H        8.44727000      17.31140000       9.00976000       0.00128307       0.02511790      -0.01796260
H       10.44460000      19.57770000       8.72900000      -0.04682090      -0.01587760      -0.01216020
O        2.25767000       8.50090000       5.99987000       0.11830000       0.28649800       0.18288600
H        1.69493000       7.35558000       5.25531000      -0.11702200      -0.27502300      -0.17598400
H        4.01853000       8.86030000       5.68862000      -0.00855150      -0.00908289       0.00671499
O        8.56946000      13.94280000       8.98664000      -0.08838000      -0.02344960       0.02780370
H        8.80170000      13.46160000      10.70500000       0.00372373      -0.00235383       0.00909298
H       10.05270000      14.53740000       8.46963000       0.08625290       0.01690570      -0.03155900
O        6.48219000       6.01100000       1.06001000      -0.06619040       0.06601120       0.00398929
H        7.12677000       7.39369000       2.03058000       0.00238762       0.01272830       0.00176028
H        7.82316000       5.00838000       0.94551000       0.07687830      -0.06633330      -0.01278550
O       18.57900000       6.94252000       5.35748000      -0.03713280      -0.08339150      -0.05357600
H       17.72430000       7.06325000       6.83827000      -0.02367450       0.00150528       0.05155550
H       19.68020000       8.16756000       5.47940000       0.08304920       0.08932750       0.00483447
O        6.91448000      22.61790000      14.58520000       0.22242200       0.16842600       0.18893600
H        6.08239000      21.62760000      13.87490000      -0.22342600      -0.21500700      -0.19198500
H        7.81662000      21.11020000      15.37580000       0.00457021       0.05429600      -0.00283561
O        0.54691100       0.50534000      19.33300000      -0.06267180       0.05659710      -0.17756400
H        0.81025100      23.10010000      20.68700000       0.03809070      -0.09302050       0.15624300
H       23.11411300      22.60400000      18.20100000       0.01877390       0.03298730       0.02791950
O        1.78651000      14.75340000       3.39045000      -0.16499200       0.08481600      -0.13459100
H        3.02302000      14.42200000       4.25440000       0.19784600      -0.08858590       0.13809600
H        1.88054000      16.55060000       3.92077000      -0.03522750       0.00078190      -0.00907027
O       11.46980000       6.71035000      18.48470000       0.06899500       0.00704438       0.03477800
H       12.04250000       5.16300000      19.56840000      -0.01877240       0.04837600      -0.03002080
H       12.94370000       8.08938000      18.55430000      -0.04929550      -0.04956980       0.00374448
O       20.80860000      18.92400000       1.28367000      -0.04715660      -0.01748060       0.06641450
H       20.91960000      19.80120000       3.12857000       0.00215841      -0.04395450      -0.06915810
H       19.72850000      17.26020000       1.58385000       0.04017370       0.05456850       0.00197539
O       15.90610000      20.48210000      19.18490000       0.02395420      -0.00709958      -0.00918053
H       15.16940000      18.77390000      18.82240000       0.01317200       0.01386880       0.00292808
H       17.75470000      20.48370000      18.78660000      -0.03825270      -0.00892654       0.01536470
O       19.82350000      14.03760000       3.70948000       0.01208310       0.00742525       0.00098772
H       19.27030000      14.04520000       5.45146000       0.00450262       0.01089430       0.00663484
H       21.64670000      14.34740000       3.61481000      -0.01198070      -0.00717756       0.00730654
O       13.66330000      17.98890000       4.42505000       0.01679860       0.06714410      -0.01309490
H       11.90570000      17.92150000       4.85394000      -0.00813424       0.01279520       0.00190980
H       13.99820000      19.81650000       3.67957000      -0.01129250      -0.06141680       0.01303820
O       14.78820000       9.33506000      14.39090000       0.06774030      -0.04934750      -0.01130040
H       15.49000000       7.62508000      13.87810000      -0.02240740       0.04576690       0.01507330
H       12.97310000       9.35775000      14.30880000      -0.00745800       0.00232848      -0.00233110
O        3.54204000      12.25430000      12.85340000       0.06990490      -0.04707260      -0.03031090
H        3.44290000      13.96010000      12.07480000       0.00735169      -0.01435660       0.00054436
H        5.30620000      11.09570000      11.99720000      -0.08789180       0.04811600       0.03712660
O       11.57360000      13.55570000       2.96485000       0.04098580      -0.08773090      -0.09108230
H       12.17900000      15.01130000       3.59307000       0.02962540       0.06283980       0.02730160
H       13.13930000      13.12300000       1.58370000      -0.06827780       0.00457001       0.06596000
O       15.02260000       1.24902000       6.21542000      -0.05544200      -0.02493690       0.03183690
H       13.98800000      23.02560000       6.12820000       0.03337150       0.04639390      -0.00127084
H       14.10310000       2.24250000       7.57677000       0.02823720      -0.02243900      -0.03232940
O       21.23910000      18.39340000      19.34920000       0.07204080      -0.01081990      -0.23495900
H       21.05330000      16.64580000      18.88440000       0.00270062      -0.00553844      -0.00841235
H       20.72060000      18.45300000      20.80070000      -0.07567930       0.01760920       0.23828800
O       19.84630000      12.91600000      17.64870000       0.02654140      -0.02117440       0.09359610
H       20.05970000      13.10840000      15.97900000       0.00233050       0.01356290      -0.08630370
H       21.29000000      11.69270000      18.05120000      -0.02091740       0.02966530      -0.00816933
O       12.69080000      15.92780000      13.14880000       0.00255758       0.01375860      -0.05372840
H       12.42610000      14.46800000      14.07740000      -0.00216845      -0.03155670       0.02347520
H       13.41150000      17.15730000      14.17830000       0.01107160       0.01522970       0.02957240
O        7.64973000      10.04140000      20.20250000       0.12200700      -0.04981470      -0.11723200
H        8.56389000       8.21739000      19.83110000      -0.03436140       0.07098070       0.01900880
H        6.53051000      10.01540000      21.40080000      -0.07977770      -0.01712840       0.09681390
O       18.49570000       3.26003000      15.53160000      -0.06120870      -0.07040280       0.10197000
H       19.01530000       3.94498000      14.15110000       0.04068100       0.06214930      -0.13401500
H       19.91080000       3.48907000      16.56270000       0.01843010       0.00418360       0.03032800
O       20.53090000       4.76859000      20.14110000      -0.11110000       0.07817840      -0.01275500
H       21.53340000       3.54493000      20.67440000       0.05939440      -0.08184190       0.02727390
H       18.70570000       4.48816000      20.76090000       0.05527760       0.00833032      -0.01398550
O       20.18680000       5.21371000      11.08480000       0.00398351      -0.00662361      -0.03132650
H       20.25810000       4.01649000       9.63804000       0.00487964       0.01142580       0.01448210
H       21.47590000       6.48355000      10.69490000      -0.01390860      -0.00831986       0.01406950
O       13.10270000      10.90470000       7.92373000      -0.00883791       0.01000670       0.02239660
H       13.46580000       9.40808000       8.88206000       0.00220727       0.00069071      -0.00204162
H       14.23060000      10.94060000       6.54613000       0.00433868      -0.00951752      -0.02088410
O       15.97300000      21.94630000       1.06860000       0.00921249      -0.04398490      -0.01788520
H       17.06160000      20.40350000       0.92309500      -0.00641049       0.02964860       0.01048390
H       15.32470000      21.81420000      22.74400000      -0.00378300       0.00560542       0.00606561
O       21.44600000       2.64521000       2.35818000       0.03105840       0.10543000      -0.05463560
H       20.94050000       3.90157000       0.81014100       0.01064660      -0.05897120       0.07030760
H       20.76920000       1.09065000       2.11491000      -0.03565480      -0.05152350      -0.02727730
O       10.47840000      10.66360000      14.17400000       0.01927240       0.03355630      -0.02770850
H        9.90419000       9.70939000      12.79910000      -0.01114410      -0.01505630      -0.03901260
H        9.37025000      10.06440000      15.33390000      -0.04324760      -0.01530950       0.06062580
O        1.76390000      20.81520000      13.61330000       0.01691450      -0.02399700      -0.00558378
H        2.23472000      22.34250000      12.78840000       0.00117239       0.01382830      -0.00483663
H        0.58071800      21.35550000      14.80880000      -0.02034780       0.00000956       0.01226960
O       11.82320000       4.44183000      13.76100000       0.09347630       0.27241600      -0.07357720
H       11.50970000       3.07836000      14.38490000      -0.05360370      -0.23829700       0.10811200
H       12.72580000       5.48442000      15.18800000      -0.04133080      -0.04015900      -0.04182310
O        4.54290000      21.93750000       6.48950000      -0.01122400       0.00127350      -0.00512206
H        3.93179000       0.16633800       5.87936000       0.02619710      -0.00557327       0.00633258
H        6.36439000      21.69090000       6.67156000      -0.01695760       0.00844533      -0.00408428
O       19.79910000      20.36270000       9.03824000       0.12023500       0.14078700       0.00429339
H       20.26780000      19.92830000      10.65330000       0.01776330      -0.00103964       0.05122230
H       18.74360000      19.24150000       8.69107000      -0.13884300      -0.14154700      -0.05337550
O        7.97891000      22.06580000       0.45462400      -0.15288700       0.06560200       0.03064380
H        9.11345000      21.00430000       0.01845900       0.11684600      -0.10731200      -0.03910130
H        6.31780000      21.05870000       0.03741300       0.03179380       0.03330420       0.01162410
O        6.96413000       4.54836000       8.31510000      -0.00473163       0.00626864       0.03224600
H        7.94704000       3.79117000       7.08957000       0.02379810      -0.02507580      -0.03642970
H        5.29579000       4.41856000       7.69729000      -0.01691340       0.00421846      -0.00811302
O       16.50530000      10.99810000       1.82117000       0.03800980      -0.10047000      -0.00303882
H       17.72840000       9.06187000       1.90269000      -0.06339440       0.09304910       0.00386540
H       17.53400000      12.29020000       2.59534000       0.01556730      -0.00480048      -0.00588946
O       22.65070000       9.61637000      10.58190000      -0.01108920      -0.03859940      -0.03034100
H        0.24668800      10.97970000      11.03670000       0.04069550       0.03059070       0.02346740
H        0.32941000       8.77463000       9.34604000      -0.00096319       0.01069890      -0.00240384
O        4.31870000      16.70570000      22.42220000      -0.05179030      -0.05841220       0.07700620
H        4.78009000      15.57380000      21.10900000      -0.00186676      -0.00469258      -0.01636600
H        3.00744000      15.26400000       0.60001000       0.04620490       0.04962060      -0.05407990
O        9.71861000       2.13100000       4.41339000       0.03353560      -0.01204500       0.05456620
H       10.78410000       1.12616000       5.66860000      -0.03002160       0.02687280      -0.04212700
H        8.81992000       0.95929200       3.41318000      -0.00927632      -0.01885730      -0.01594340
O        2.88712000      21.02150000      23.32082300      -0.00476181       0.03070790       0.03522540
H        2.55526000      19.27020000      22.82910000       0.00758116      -0.00109323       0.00765399
H        2.71308000      21.32010000       1.77540000      -0.00243368      -0.01528970      -0.04213490
O        6.92307000       8.81447000      10.02380000       0.04741480       0.02742340      -0.05207870
H        7.27802000      10.41570000       9.04493000      -0.00790061      -0.03141390       0.01549670
H        7.83717000       7.50041000       8.80978000      -0.03913250       0.02572280       0.04633830
