192
TotEnergy=-1102.88531000 cutoff=-1.00000000 nneightol=1.20000000 pbc="T T T" Lattice="24.05735000       0.00000000       0.00000000      -0.00000100      24.05735000       0.00000000      -0.00000100      -0.00000100      24.05735000" Properties=species:S:1:pos:R:3:force:R:3:Z:I:1
O              17.99170000     20.86930000     16.58660000     -0.01715800     -0.02248900      0.05901540       8
H              18.29550000     22.54340000     16.13480000      0.01048660      0.02869190     -0.01598340       1
H              17.90970000     20.94290000     18.52240000      0.00926704     -0.01408190     -0.04575730       1
O              15.78240000     18.85650000     12.40310000     -0.04047110      0.03040050      0.01915760       8
H              14.02750000     19.85160000     12.50730000      0.04809910     -0.02433370     -0.00019504       1
H              16.29400000     19.01300000     14.20490000      0.00467533      0.00035401     -0.02067080       1
O              20.05150000     13.48130000     16.79990000     -0.05020860      0.03655800     -0.02487230       8
H              21.16730000     13.63670000     18.09900000      0.05349350     -0.00603551      0.05127550       1
H              19.28000000     15.17220000     17.07170000      0.00426138     -0.02386230     -0.01943960       1
O               1.81779000      5.47345000      5.41840000     -0.03512970      0.00174494     -0.03642970       8
H               2.74449000      5.36346000      6.87840000      0.02806620      0.00558127      0.04399810       1
H               0.06129100      5.37522000      6.01690000      0.00323232     -0.00641486     -0.00797211       1
O               2.54468000     19.45830000     13.67860000     -0.02465420      0.05649600     -0.00378572       8
H               1.16542000     18.80570000     12.67560000     -0.00116885     -0.00088194      0.00786747       1
H               1.84061000     21.25930000     14.19920000      0.02564470     -0.05434090     -0.00526650       1
O              11.44610000     13.93640000     16.24400000     -0.07055780      0.02957120      0.00801360       8
H              10.31240000     13.83530000     14.64220000      0.03201630      0.00371587      0.03470030       1
H              10.21370000     14.88440000     17.48680000      0.04261060     -0.02700010     -0.04687590       1
O              13.63090000      6.41391000      0.66943100     -0.03952200      0.03578090      0.08682640       8
H              14.11360000      7.61056000      2.57705000     -0.00170412     -0.06044510     -0.07236330       1
H              11.81340000      5.83582000      1.33982000      0.04779360      0.01993380     -0.02221670       1
O               7.63044000     16.97070000      2.59816000     -0.00926978     -0.03354190     -0.00770197       8
H               9.29895000     16.12390000      2.86683000     -0.02178830      0.00936080      0.00267472       1
H               6.35501000     15.55750000      2.33081000      0.03440270      0.02606860      0.00686879       1
O              11.13580000     20.03870000     13.15040000      0.02381670      0.05821000     -0.04569530       8
H              11.19490000     18.41700000     12.59300000     -0.00431059     -0.06316300     -0.04464960       1
H              10.51530000     19.61630000     14.66780000     -0.03698860     -0.00114348      0.08831770       1
O               1.40296000     -0.06957900     16.48410000      0.02512440     -0.08283870      0.02307240       8
H              -0.32734700      0.15097200     16.63380000     -0.05246980      0.00994228     -0.00395584       1
H               2.12130000      1.33136000     15.85400000      0.03614030      0.06194320     -0.02060870       1
O              14.55510000     10.11360000     11.01530000     -0.10114600     -0.00919919      0.06307040       8
H              16.17320000      9.65435000     11.29120000      0.07753380     -0.00749915      0.01382290       1
H              13.60310000      9.66783000     12.74580000      0.03256080      0.01424060     -0.06650280       1
O              15.99570000      7.65234000      5.14430000     -0.00304431     -0.03603820      0.06725070       8
H              16.26290000      6.28835000      6.77964000     -0.02025080      0.04246910     -0.06498540       1
H              14.55360000      8.57287000      5.87606000      0.00963826      0.00485133     -0.00020011       1
O               8.80272000      0.46035500     18.83080000      0.01936590      0.05940330     -0.03332010       8
H              10.30990000      1.41316000     18.15790000     -0.02168510     -0.01654400      0.00253590       1
H               9.77821000     -0.70018600     19.69220000      0.00707603     -0.04304330      0.03012190       1
O               7.64852000     17.89910000     16.41880000      0.09038600     -0.03334550     -0.18795900       8
H               7.17387000     18.14590000     17.87710000     -0.05664590      0.04957630      0.22833600       1
H               6.13541000     17.33520000     15.76380000     -0.03622580     -0.01386300     -0.03580120       1
O              22.87270000     22.12740000      2.19235000     -0.04523020      0.05256240     -0.04894710       8
H              24.25390000     23.29410000      1.86562000     -0.00211928     -0.00846809      0.00449552       1
H              21.47250000     23.07240000      0.98182800      0.04624450     -0.04038540      0.04632670       1
O               2.35923000     21.12780000     20.81820000     -0.02054650      0.00172150     -0.09616060       8
H               2.58162000     22.28710000     22.06840000      0.00763145      0.04089370      0.04896460       1
H               1.98370000     22.41770000     19.27650000      0.01793400     -0.05120290      0.04817240       1
O              20.25620000      7.62156000     21.38100000      0.02800740      0.02358940      0.01312140       8
H              22.09780000      7.83132000     21.09920000     -0.02498420     -0.01073950      0.00397942       1
H              20.06460000      9.08865000     22.55780000     -0.00562482     -0.01858260     -0.01834240       1
O              15.38830000     15.69330000      8.41663000     -0.06931600      0.00121906      0.05393070       8
H              13.60780000     14.72460000      8.87456000      0.07388910      0.04579200     -0.02506640       1
H              15.40450000     17.02960000      9.91507000      0.00504715     -0.04087730     -0.03793910       1
O               9.04210000      5.51670000      2.80818000     -0.06925920     -0.01210070      0.05695220       8
H               8.80635000      6.20439000      4.67165000      0.00992798     -0.01887340     -0.06645870       1
H               7.31457000      4.45992000      2.51002000      0.06299310      0.03032490      0.01637540       1
O              18.22870000     24.37340000      7.82136000     -0.00858822      0.02042850     -0.00972787       8
H              19.06720000     24.31070000      9.36926000      0.01340460     -0.00009809      0.02989260       1
H              18.11640000     22.66520000      7.37797000     -0.00234646     -0.02465970     -0.01239140       1
O               7.52031000     10.40340000      6.02608000     -0.04378470     -0.01498050      0.03339220       8
H               6.74337000     10.93160000      4.39326000      0.00708141     -0.00175022      0.02324360       1
H               6.11650000      9.94301000      7.31803000      0.03392210      0.00992563     -0.04202610       1
O               4.29671000      7.87192000      9.78315000      0.04751350      0.00018127      0.04040460       8
H               5.83808000      6.63254000      9.80132000     -0.03696040      0.03941140      0.00936330       1
H               4.46412000      9.03584000     11.37130000     -0.00862724     -0.03692410     -0.04377420       1
O               4.06936000     13.64500000     19.18510000      0.02826660      0.01078070      0.03684800       8
H               5.60208000     12.67560000     19.62080000     -0.01405470      0.00735660      0.00459968       1
H               3.51426000     12.78730000     17.76960000     -0.01827830     -0.01844470     -0.04589230       1
O              24.14250000     14.04760000     11.17070000     -0.08653150      0.00172138      0.20999800       8
H              23.06070000     15.48730000     11.35910000     -0.00877929      0.02074300     -0.00349412       1
H              24.74810000     13.92180000      9.72968000      0.08261020     -0.01058920     -0.19832000       1
O              12.73380000     11.56310000     23.34700000     -0.06999470      0.09100320     -0.02367620       8
H              13.20170000     11.89120000     21.67290000      0.01440160      0.00299286     -0.02789710       1
H              13.69750000     10.31170000     23.85370000      0.05903930     -0.09431400      0.03631430       1
O              11.37700000      0.72861400     11.67990000      0.01599030      0.01943260      0.04556840       8
H               9.61082000      0.54861000     12.15700000      0.01973340     -0.01641480      0.00675700       1
H              12.40200000      0.93702300     13.41380000     -0.03206310     -0.00789325     -0.04631500       1
O               2.99478000     11.28230000     14.28300000     -0.06062500      0.04929350     -0.01929300       8
H               1.79174000      9.84920000     14.62820000      0.02445010      0.02387240     -0.00758490       1
H               1.64154000     12.94530000     13.49900000      0.05121770     -0.06725870      0.01577310       1
O               8.83730000      5.04282000     10.43480000      0.03747670      0.02018310      0.07842800       8
H               9.38277000      3.31177000     10.69220000      0.00394763      0.00247358     -0.01556960       1
H               9.82123000      5.71100000     12.11720000     -0.04194030     -0.00969411     -0.06682030       1
O               4.25371000     20.78840000      3.24201000     -0.12217900      0.00180645     -0.00731682       8
H               2.57750000     19.65590000      2.81714000      0.06644300      0.05547290      0.01767660       1
H               5.49110000     19.63710000      2.93926000      0.06033940     -0.04637280     -0.00758002       1
O              -0.46799600     15.07620000     21.21050000      0.05999400      0.03717000     -0.02600520       8
H               0.37149200     16.79370000     20.57530000     -0.03495650     -0.05451150      0.02591120       1
H               1.07760000     13.95380000     21.03960000     -0.02801530      0.02196750      0.00158779       1
O               0.75232000     15.30930000      6.18140000     -0.07238390      0.14838500      0.12840600       8
H               0.91993300     14.29590000      4.97069000      0.02296070     -0.12522000     -0.14493800       1
H              -0.91529400     16.26400000      5.85061000      0.05165100     -0.02443730      0.01065890       1
O               5.54449000      3.02462000     15.31530000      0.00512809      0.00471773     -0.02388060       8
H               5.84420000      2.70659000     13.51050000      0.00018242      0.00807543      0.02360760       1
H               7.15269000      2.88776000     16.16010000     -0.00846584     -0.01060210     -0.00287862       1
O              18.21020000      3.23945000     19.80240000      0.04464070     -0.04608340      0.02022000       8
H              19.33840000      4.04662000     21.00030000      0.00509367     -0.00435052      0.00521971       1
H              17.48610000      4.69917000     19.25900000     -0.03589330      0.04695530     -0.02175630       1
O              19.46030000     19.49760000     21.30130000     -0.02795040      0.05617640      0.05378970       8
H              18.79860000     20.77380000     22.79340000      0.02571220     -0.03727700     -0.06751750       1
H              19.35270000     17.94480000     22.14170000      0.00239324     -0.02727590      0.00609866       1
O              11.34610000      8.30055000     14.86340000      0.01052720     -0.08545070     -0.03201560       8
H              10.66100000      9.82716000     14.69890000     -0.04862620      0.08406250     -0.01853320       1
H              12.30980000      8.52190000     16.27110000      0.03072220      0.00132534      0.05272160       1
O              17.23490000     15.75770000      2.95593000      0.10892900      0.03120770      0.10920600       8
H              15.68860000     15.53100000      2.42780000     -0.11280700     -0.01144420     -0.05340400       1
H              16.71180000     16.13540000      4.84560000      0.01885700     -0.01513910     -0.04615300       1
O               9.96739000     16.53300000      9.00243000      0.02906530      0.05725440     -0.05867590       8
H               8.28245000     16.24160000      8.22739000      0.01785500      0.01712680      0.01097190       1
H              10.86580000     18.04860000      7.84086000     -0.04456780     -0.07244390      0.04823440       1
O               5.16895000      2.04424000      3.44130000      0.01951180     -0.07679270     -0.01471320       8
H               3.60966000      2.63818000      4.10668000     -0.01582160      0.00163053      0.00933929       1
H               5.11935000     -0.05565700      3.30221000     -0.01061800      0.07368470      0.00222130       1
O              12.35740000     15.01670000      2.89404000     -0.01352650      0.02340840     -0.02826940       8
H              12.31260000     14.28510000      1.20600000     -0.00080150     -0.00473686      0.00873627       1
H              13.18650000     13.78190000      3.85870000     -0.00250071     -0.02413540      0.02694530       1
O              20.95880000     18.46610000     10.87240000      0.00063872     -0.01242800     -0.06711820       8
H              19.01550000     18.24900000     10.97810000      0.05356620      0.01088990     -0.00777473       1
H              21.61160000     18.65950000      8.67335000     -0.04968560     -0.00237440      0.08263700       1
O               1.27696000      6.62295000     20.62590000     -0.05412110     -0.03941570      0.19434800       8
H               2.78060000      7.20850000     20.46560000      0.13743000      0.05818360     -0.00127449       1
H               0.74874400      6.57586000     19.14710000     -0.07785030     -0.01195450     -0.19921300       1
O              21.62110000      5.39300000     12.15010000     -0.04464400      0.05885390     -0.04917430       8
H              21.43690000      7.41086000     11.93000000      0.00515704     -0.06619030      0.01110180       1
H              20.28260000      4.86068000     10.83010000      0.04118790      0.01207110      0.03445030       1
O              15.01520000      4.53026000      9.14435000      0.04019730      0.04169660     -0.00267035       8
H              14.12010000      3.07642000      9.30553000     -0.02546540     -0.06283460     -0.00453740       1
H              14.10600000      5.62359000     10.20290000     -0.00855176      0.02594320      0.01049170       1
O              15.19470000     11.02290000     18.16970000      0.01647300      0.04004980      0.01577780       8
H              16.57560000     11.71090000     19.31670000     -0.02504240     -0.01871270     -0.03743100       1
H              14.63530000     12.47890000     17.05950000      0.00902866     -0.02799090      0.02323060       1
O               8.00139000     20.22280000     22.16850000      0.02882890      0.02156670     -0.02490920       8
H               6.29306000     19.83210000     22.19350000     -0.04136590      0.00017719     -0.00589492       1
H               8.65611000     19.14650000     23.38900000      0.01439810     -0.02164960      0.02865640       1
O              19.57310000     10.84360000     12.32270000     -0.01048950      0.04483850     -0.15589800       8
H              20.64660000     12.84850000     10.72810000     -0.03548750     -0.08225100      0.07216310       1
H              20.44240000     10.99580000     13.74890000      0.04866710      0.02414860      0.08335150       1
O              18.15140000     -0.37052500     23.54460000      0.01567670     -0.06245610      0.05369320       8
H              17.51350000      1.00904000     22.75930000     -0.02253020      0.05624110     -0.03815720       1
H              17.09650000     -0.53545400     25.03890000      0.00627311      0.01189560     -0.00247033       1
O              20.87780000     19.34710000      5.97439000      0.00400802     -0.00339711     -0.00794739       8
H              21.77480000     20.67950000      5.02066000     -0.00487625     -0.00802424     -0.00780959       1
H              20.05890000     18.19740000      4.79719000      0.00112379      0.01235960      0.00035669       1
O               5.51269000     12.33970000      1.95073000      0.13212300      0.04923160     -0.01741970       8
H               6.10585000     11.61240000      0.37208500      0.02805860      0.01063010     -0.00479220       1
H               4.07770000     11.61850000      1.81625000     -0.16554200     -0.05976020      0.00710323       1
O              15.76240000      2.05687000      3.53023000     -0.05939070     -0.07283750      0.01677480       8
H              14.20370000      0.73545200      4.02938000      0.06118290      0.05597780     -0.01068840       1
H              14.86460000      3.60582000      3.55939000     -0.00182666      0.01451890     -0.00750277       1
O               4.90668000     17.11900000      9.28447000     -0.02662200      0.08445520      0.05638340       8
H               4.30087000     19.08760000     10.60830000      0.02712790     -0.08820520     -0.04387930       1
H               3.32236000     16.86430000      8.44900000     -0.00028484     -0.00183871     -0.00853846       1
O               8.79321000     12.14660000     12.33120000     -0.01198210      0.00455647     -0.03015010       8
H               7.15770000     11.94550000     13.07290000     -0.01172120      0.00035336      0.00452075       1
H               8.38815000     12.62320000     10.56260000      0.01098690     -0.00335742      0.02838880       1
O               2.11296000      2.06156000     22.97830000      0.05864090      0.02252820      0.10880400       8
H               2.34904000      3.16982000     21.66120000     -0.00305944      0.02716130     -0.03911890       1
H               3.46659000      3.17031000     24.47570000     -0.05884060     -0.06161820     -0.06276070       1
O              12.39290000     11.12940000      6.95674000     -0.01655720      0.02493300      0.01736190       8
H              10.62280000     11.57210000      7.43119000      0.02492680     -0.01628580     -0.02427520       1
H              13.34500000     11.49000000      8.53117000     -0.00542895     -0.01760590     -0.01715330       1
O              14.11310000      5.86652000     19.07740000      0.01073200      0.03935770     -0.02805690       8
H              14.88480000      7.12694000     17.88010000     -0.00950284     -0.01035860      0.03775760       1
H              13.85180000      6.66460000     20.72770000      0.00025333     -0.00449215     -0.00257471       1
O              13.42220000      1.80832000     16.61580000      0.05244910      0.07755970      0.04399650       8
H              13.24050000      4.00875000     17.13010000      0.00458927     -0.08694710     -0.00851939       1
H              15.15190000      1.65502000     17.65790000     -0.06280600     -0.00475364     -0.04035370       1
O               7.65126000     10.73450000     21.15710000      0.07053580     -0.01038100     -0.01550640       8
H               9.54024000     11.62320000     21.00060000     -0.08111900     -0.05475680      0.01201610       1
H               7.76764000      8.76858000     20.93300000      0.01273760      0.05782130      0.01577060       1
O              11.56330000     23.55940000      5.52998000     -0.00822331     -0.00174165      0.05080570       8
H              10.99820000     23.77990000      7.32325000      0.02612420     -0.00539187     -0.02516220       1
H               9.98667000     23.83310000      4.76625000     -0.01922680      0.00403223     -0.02510520       1
O               1.62530000      6.75923000     15.41780000     -0.00622863     -0.02628620     -0.00787240       8
H               1.44624000      5.54501000     14.05670000     -0.01571670      0.01374090     -0.00188036       1
H               3.25064000      6.20142000     15.94470000      0.01726400      0.00236548      0.00826235       1
O               7.94441000      5.33270000     21.80000000      0.00221065      0.00224897     -0.00655963       8
H               8.02317000      4.78625000     20.10180000     -0.01134680     -0.00575320     -0.01921540       1
H               9.19238000      4.16675000     22.40030000      0.00167319      0.00298266      0.01676970       1
O               0.75691800     10.22800000      2.71319000      0.01594230     -0.04813030      0.04045860       8
H               1.76849000      8.80182000      3.78815000     -0.04869030      0.04256560     -0.03583460       1
H              -1.05845000      9.80084000      2.81792000      0.03162440      0.00067661     -0.00229611       1
O              19.95210000     12.05160000     23.57780000     -0.03583020     -0.01887800      0.03894210       8
H              19.29330000     12.20140000     25.30100000     -0.00719323     -0.00515621     -0.01487860       1
H              21.03630000     13.42490000     23.62940000      0.03652470      0.03323090     -0.01876640       1
O              20.72180000      4.78797000      6.43623000      0.00265912     -0.09645720      0.03613340       8
H              19.52610000      3.19835000      6.28984000      0.03401460      0.04306590      0.00160619       1
H              19.98700000      6.06328000      5.58485000     -0.03771010      0.05256280     -0.03892370       1
O              21.01840000      1.48290000     15.57420000      0.01695320      0.07256360      0.02135790       8
H              20.61720000      2.63812000     17.18760000      0.00481987     -0.03979680     -0.05639010       1
H              22.04300000      2.67800000     14.36530000     -0.04530170     -0.02863430      0.03555120       1
