192
TotEnergy=-1102.48808000 cutoff=-1.00000000 nneightol=1.20000000 pbc="T T T" Lattice="23.25984000       0.00000000       0.00000000      -0.00000100      23.25984000       0.00000000      -0.00000100      -0.00000100      23.25984000" Properties=species:S:1:pos:R:3:force:R:3:Z:I:1
O               5.81837000      4.95453000     21.60830000      0.04132950      0.04604610     -0.03669100       8
H               6.38869000      4.77584000     19.82650000     -0.01504410     -0.00550656      0.02876200       1
H               6.89280000      6.52641000     21.88070000     -0.02289310     -0.03367100      0.01212090       1
O              17.14450000      1.94805000      1.70720000     -0.01972390      0.00802408     -0.02691150       8
H              16.25590000      2.90607000      0.28347000      0.01528600     -0.02618580      0.02478460       1
H              16.20890000      2.48325000      3.18303000      0.00154644      0.00607230     -0.00235545       1
O              18.50680000     16.77940000     21.99580000      0.03332760      0.19262200      0.09336080       8
H              17.88120000     17.83980000      0.19933900     -0.01002260      0.04643640      0.08334350       1
H              19.71910000     17.99630000     20.92250000     -0.00230009      0.03162820      0.01208280       1
O              16.81510000     19.73040000      2.34579000     -0.00922237     -0.08130310     -0.01334490       8
H              16.82170000     21.46770000      2.06135000     -0.00405215      0.05185320     -0.00888979       1
H              15.03520000     19.21240000      2.84715000      0.02349270      0.00697374     -0.00396381       1
O               3.85927000     -0.14608300      8.21256000     -0.01743950     -0.00860973     -0.04060330       8
H               3.34102000      0.27652000      6.37200000      0.00359439     -0.01034110      0.04315320       1
H               3.76019000     21.25320000      8.30233000     -0.00179200      0.01289570     -0.00368403       1
O              16.13020000     17.95590000      9.93997000     -0.01500320      0.00871571      0.01282150       8
H              17.77910000     18.84430000      9.96844000     -0.01684900     -0.00710682      0.00187608       1
H              14.66790000     19.10300000      9.90737000      0.02293230     -0.00368596     -0.01147790       1
O              11.56290000     17.82340000      2.50438000     -0.01136170     -0.00565929      0.01440530       8
H              -4.25928000     15.81620000     20.87270000      0.03648730     -0.20132000     -0.15877600       1
H               9.91009000     16.94610000      3.19622000      0.03119340      0.01735340     -0.01866720       1
O              21.74460000     19.61150000      5.66435000     -0.07103670     -0.00505828     -0.05398870       8
H              -0.22636800     20.65430000      4.77443000     -0.01237730     -0.00540330      0.00316567       1
H              20.03210000     19.44550000      4.47596000      0.07664900      0.01027850      0.04785090       1
O              16.20560000     13.66650000      7.23698000     -0.06226690      0.04638570      0.03870190       8
H              15.90630000     14.99690000      8.82650000      0.01903660     -0.04023730     -0.07470500       1
H              14.43200000     13.56460000      6.49442000      0.03620490     -0.00530624      0.01766320       1
O              20.63790000     12.20570000     12.77940000      0.04504400     -0.04320900     -0.00290254       8
H              22.36400000     11.64560000     12.18290000     -0.04158330      0.00712155      0.01100590       1
H              20.82180000     13.98630000     12.61990000      0.00148108      0.03226680      0.00356857       1
O               0.24058400      7.09307000     10.56410000     -0.03159220     -0.10641400     -0.01476010       8
H               0.87512700      4.75679000      9.98945000     -0.03233000      0.10968800      0.02614840       1
H              21.50270000      6.94842000     10.18590000      0.06509390     -0.00816927      0.01113700       1
O              22.26880000      5.18093000     19.43720000      0.00086550     -0.02003070     -0.04582630       8
H              20.58960000      5.77721000     18.91670000      0.01215250      0.00190379     -0.00022803       1
H              -0.12302500      4.61947000     17.77420000     -0.02132520      0.02387640      0.05247850       1
O               3.74853000      1.38457000     17.20900000     -0.01410810     -0.00475082      0.00736461       8
H               3.25755000      0.58548600     18.83390000     -0.00159866     -0.00370784     -0.00876561       1
H               5.21927000      2.31694000     17.60870000      0.00945169      0.00390093     -0.00056142       1
O               1.79867000     -0.37282000      3.46116000      0.00857104     -0.01442650      0.00239543       8
H               3.40865000     -0.92832200      2.67093000     -0.02228940      0.01859840     -0.00363207       1
H               0.65393600      0.46233500      2.25697000      0.01973980      0.00368223      0.00087122       1
O               6.94444000     10.70260000      3.39862000     -0.04779650     -0.03445180     -0.03475320       8
H               6.72327000      9.00419000      4.05378000     -0.01044950      0.00452562     -0.01064810       1
H               8.26061000     11.11490000      4.47328000      0.05974060      0.02985200      0.03693530       1
O               9.94456000      6.24987000      8.72881000     -0.01733880     -0.03790380      0.06209930       8
H               9.78529000      4.43099000      8.18968000     -0.00229902      0.02883530     -0.00013125       1
H               9.54825000      6.02559000     10.67100000      0.01695200      0.00097744     -0.05973110       1
O              12.17290000     22.65140000     13.14530000      0.08001830      0.01952490     -0.01241190       8
H              11.55710000     21.32400000     12.10990000     -0.01685440     -0.01521890     -0.01042920       1
H              14.00850000     -0.33081700     12.39210000     -0.05953390      0.00112060      0.02034240       1
O              10.99730000     10.71150000      6.52289000     -0.04953830     -0.02600310      0.04660890       8
H              10.02350000      9.20105000      7.47519000      0.05005680      0.05056480     -0.03744760       1
H               9.98816000     12.57860000      9.26029000      0.01315200     -0.00872527      0.01997940       1
O              20.54310000     20.45610000     10.35040000     -0.02558270      0.02092830     -0.02538590       8
H              19.28650000     21.67670000     11.01940000      0.01055970     -0.00390462     -0.00637769       1
H              20.41190000     20.60140000      8.43177000      0.02360570     -0.00849570      0.02558410       1
O              21.78090000     16.86180000     13.42720000      0.07205580      0.06567130     -0.00936515       8
H               1.62075000     17.32250000     13.37750000     -0.06547260     -0.02144960      0.00225605       1
H              21.41160000     18.47700000     12.29730000      0.00913938     -0.04896620      0.02425020       1
O               5.50190000     11.25450000     21.51360000     -0.00008255     -0.04090910     -0.07959210       8
H               4.54838000     12.66110000     20.91640000     -0.00941027      0.02747960     -0.00505911       1
H               5.74596000     11.35160000     -0.07430500      0.02451130      0.01005230      0.09495170       1
O              12.17780000     21.41290000      6.55875000     -0.00475082     -0.01826330     -0.00488324       8
H              11.65240000     19.92080000      7.48229000      0.00364929      0.01321290     -0.00231108       1
H              11.77540000     19.13260000      3.84861000     -0.00428252      0.00387543     -0.00241609       1
O               4.56223000     19.65850000     13.84440000      0.00498925     -0.00155307      0.05237510       8
H               4.68245000     21.48670000     13.78140000     -0.00339981     -0.00695084     -0.00217773       1
H               5.03885000     19.33370000     15.75980000     -0.00083158      0.00652087     -0.04777490       1
O               4.78097000      2.49001000     12.16970000     -0.09122010     -0.00455539      0.08315920       8
H               4.08659000      1.42818000     10.82920000     -0.00141898     -0.00301010     -0.00226231       1
H               3.50528000      2.28167000     14.01490000      0.05603070      0.00467505     -0.07837290       1
O               9.88403000     13.12720000     11.21050000     -0.05969360     -0.00072595     -0.05491240       8
H              11.52620000     12.91530000     12.03090000     -0.00105438      0.01045460      0.00278596       1
H               6.61860000     12.80230000     12.00200000      0.05276360     -0.05112240      0.02653100       1
O              17.34420000      9.72539000     10.31570000     -0.07205590      0.02975870     -0.00956442       8
H              15.79270000     10.93960000      9.73502000      0.06677530     -0.04583400      0.00705497       1
H              18.49960000     10.77510000     11.29790000      0.00431816      0.00867559     -0.00423279       1
O               1.99559000     21.43010000     21.12240000     -0.06222060     -0.02369380     -0.05646280       8
H               0.50719500     22.34290000     21.81810000      0.02427910     -0.00099492     -0.00338610       1
H               0.57058000     20.36790000     19.17210000      0.04596070      0.01897680      0.06334820       1
O              22.05350000     11.76360000     18.76810000     -0.00876607      0.03388820      0.03193690       8
H              -0.41374900     13.35200000     18.39290000      0.00884212     -0.00137825     -0.00644974       1
H              22.35280000     11.50340000     20.66760000      0.00619845     -0.00340417     -0.03582880       1
O              18.37060000      8.86122000     17.98440000      0.00305666      0.01666020     -0.02355850       8
H              16.98760000      8.43847000     16.79060000      0.01348870      0.01648610      0.01273420       1
H              19.21490000     10.49120000     17.39190000     -0.02152980     -0.04382290      0.00837506       1
O               4.09355000     17.77010000      8.49479000     -0.00103778      0.00582630      0.02212020       8
H               4.33876000     17.79830000     10.31460000     -0.00198610      0.00333517     -0.00922144       1
H               2.88656000     16.43110000      8.33140000     -0.00388563     -0.00268631     -0.01052710       1
O              21.72770000     19.25230000     18.37810000     -0.02551390      0.11255300      0.13439100       8
H              21.61490000     18.25050000     17.09290000      0.00085217     -0.09674040     -0.13958100       1
H              20.72800000     20.87000000     17.88510000      0.00534106     -0.02187600     -0.00793110       1
O               9.67168000     18.69750000     10.51700000     -0.01664450      0.03150820     -0.00510053       8
H               7.90408000     19.23200000     10.45480000      0.02154480     -0.00775434      0.00260237       1
H               9.71126000     16.94280000     10.77900000     -0.00203285     -0.03128080      0.00710018       1
O              10.62570000     15.38370000     17.10470000      0.02313540     -0.09938940      0.05526810       8
H              11.69500000     15.11990000     18.86440000     -0.02914640      0.02731670     -0.06065810       1
H               9.99006000     12.70380000     17.25630000      0.00670382      0.04954120      0.00745485       1
O               8.30759000      1.69678000      6.58639000     -0.04006930      0.02216160      0.01762450       8
H               6.82942000      1.54782000      7.79756000      0.03762300     -0.00769893     -0.03207840       1
H               9.33938000      0.20210500      6.68541000      0.02350770     -0.01942150      0.00577402       1
O               7.06083000     18.33820000     18.27130000      0.03022910      0.00302251     -0.01751660       8
H               8.20112000     19.30090000     19.41500000     -0.01601320     -0.00907986     -0.01378110       1
H               8.36525000     17.16710000     17.33050000     -0.00901473      0.01635050      0.02524770       1
O              15.43410000      2.83936000     20.22060000      0.01380760      0.06857670      0.02350570       8
H              14.09310000      3.92371000     19.57530000      0.00736032      0.00559062      0.00416552       1
H              15.00480000      1.38237000     19.35510000     -0.01161970     -0.04802780     -0.02223870       1
O               4.51216000      7.48878000      7.68513000      0.06692290      0.03644180      0.01917330       8
H               4.31324000      5.94399000      8.60489000      0.00594310      0.00234187      0.00163335       1
H               6.31417000      8.18368000      8.29403000     -0.06361380     -0.03529680     -0.02361000       1
O              10.37440000     21.34660000     21.82090000     -0.03812050     -0.00295099      0.00168353       8
H              10.93470000     19.92320000     -0.47973800      0.01156840     -0.01513500      0.01304720       1
H               8.70702000     21.62840000     22.65930000      0.02427750      0.01825140     -0.00591092       1
O              11.16870000      7.79395000     -0.18771700      0.08041220      0.03408680     -0.03015310       8
H              10.81720000      9.53403000      0.53092100      0.01580630     -0.03882230     -0.01260420       1
H              13.42270000      7.91286000     22.19640000     -0.10352200      0.00783156      0.04672530       1
O              14.41850000      9.35191000     14.65420000     -0.04811180      0.01702230      0.04729740       8
H              13.81020000     11.11220000     14.61060000      0.01218450     -0.01956060      0.00488640       1
H              15.50190000      9.33673000     13.30050000      0.03694410     -0.00765010     -0.05563010       1
O              18.73520000     -0.38474600     16.57770000     -0.02893300     -0.01595340      0.01931860       8
H              17.20290000     21.81380000     15.93210000      0.03585540      0.03589210      0.03610610       1
H              18.33620000      0.50579200     18.25790000     -0.00631006     -0.01646840     -0.05041810       1
O               1.37246000      8.21307000     16.12910000     -0.00735634      0.00611471     -0.03272990       8
H               0.91820000      7.52033000     14.35150000      0.00126274      0.03229220      0.04376010       1
H               0.18411300      9.53397000     16.89310000      0.02021590     -0.03318190     -0.03209800       1
O               8.87207000     10.28220000     18.06400000      0.02590280      0.00640077      0.02238750       8
H               7.81094000     10.82360000     19.65030000      0.01410500     -0.02035030     -0.01989400       1
H               9.89705000      8.63830000     18.25580000     -0.01706720      0.03483790      0.00309379       1
O               6.72315000     10.39660000     13.95830000     -0.12272900      0.02682270     -0.06381930       8
H               5.14339000     10.44420000     15.09680000      0.04667950     -0.00810070     -0.01931600       1
H               8.25967000     10.56220000     14.72010000      0.04172380      0.00655364      0.03791510       1
O              14.48610000     15.34880000     20.47410000      0.03759180      0.02702610      0.07461440       8
H              14.06250000     14.02360000     21.75460000      0.00779111      0.02157090     -0.02704640       1
H              16.22720000     16.74720000     21.89240000     -0.12835600     -0.06452740     -0.08320670       1
O               0.45618500      9.45458000     22.49480000      0.03202860     -0.00936118     -0.01500670       8
H              -0.00187500      8.54055000     20.85990000      0.02341570      0.00002769      0.04275150       1
H               2.40669000      9.52826000     22.59830000     -0.05091370     -0.00660093     -0.01371550       1
O               1.35835000     12.22790000      8.75321000      0.01441130     -0.03347680      0.02934390       8
H               2.05167000     10.48640000      9.28520000     -0.02158470      0.03427840     -0.02971890       1
H              -0.33464600     11.95360000      7.87771000      0.02244900     -0.00155030      0.01266410       1
O               2.83303000     17.24250000      1.86460000     -0.08157580      0.00273796     -0.03415610       8
H               2.01355000     18.69430000      0.78580400      0.03166830     -0.03599330      0.03269430       1
H               1.20651000     16.04890000      2.02430000      0.06401900      0.05645340      0.00034521       1
O               7.57656000     16.77550000      4.90983000      0.00759871      0.01987000      0.01817840       8
H               5.93321000     17.52390000      4.44390000      0.02306330     -0.00667526      0.00923150       1
H               8.51083000     17.86130000      6.17321000     -0.03468000     -0.01822060     -0.02488620       1
O              21.99460000      1.83110000     -0.07020600     -0.03973410     -0.00602481     -0.00898315       8
H              20.14870000      1.51909000      0.32624700      0.03287500      0.01595090      0.00079056       1
H              22.03690000      3.18567000     21.85410000      0.00409591     -0.01364820      0.01346250       1
O              22.36070000      6.30849000      5.12562000      0.00861789      0.04056040     -0.06595830       8
H              22.85780000      8.10525000      4.23251000     -0.02807870     -0.07644610      0.03427200       1
H              21.18990000      5.28749000      4.01480000      0.03144580      0.03049520      0.00993890       1
O              11.56160000      5.51519000     17.11450000     -0.00253156     -0.00530382      0.00190366       8
H              10.39910000      4.32449000     16.32470000      0.00024202      0.00839291     -0.00335482       1
H              12.46400000      6.16618000     15.65990000     -0.00008625      0.00606392      0.00399700       1
O              19.08870000      5.49371000      8.32665000      0.02416390      0.03299420      0.00124012       8
H              20.52200000      6.02468000      7.10932000     -0.02279150     -0.01660340      0.01465690       1
H              18.63180000      7.26888000      8.85518000     -0.02315000     -0.02702030     -0.00231133       1
O              13.68360000     22.27390000     18.20730000     -0.01779330      0.00612995     -0.01701840       8
H              12.45380000     23.00460000     16.98720000      0.01991720     -0.02061730      0.01058570       1
H              12.79450000     22.34600000     19.82410000     -0.01038520     -0.01259500     -0.00386403       1
O               3.59312000     15.32470000     19.73860000     -0.03168300      0.02708050      0.03238620       8
H               4.94225000     15.86920000     18.64380000      0.00390359      0.01221130      0.00728556       1
H               3.46765000     16.75100000     21.05810000      0.00989314     -0.03906800     -0.03376870       1
O              21.81580000     14.55260000      1.50775000     -0.01542030     -0.02438490     -0.04054260       8
H              20.60280000     14.34640000      0.04224700      0.04286510     -0.00882634      0.04955540       1
H              23.16430000     13.29330000      1.21791000     -0.02159530      0.00066817     -0.00028502       1
O              20.91530000     11.54690000      5.74043000     -0.01711320      0.06632920     -0.06022920       8
H              21.01560000     13.33580000      4.60353000     -0.00991211     -0.07874510      0.05035460       1
H              19.09730000     11.10130000      5.70577000      0.02177540      0.01123590      0.01170110       1
O               6.76980000      0.80280000      1.46069000      0.00065196      0.03193260      0.02914480       8
H               7.46074000      1.22304000      3.25111000     -0.01561950     -0.00517264     -0.04199830       1
H               6.28406000      2.46104000      0.63092700      0.01380320     -0.03409170      0.01752300       1
O              16.07540000     10.68260000     21.94890000     -0.14821600      0.07804030      0.14135800       8
H              17.00890000     10.03240000     20.85020000      0.13393900     -0.07862970     -0.13412100       1
H              16.70940000     11.39100000      0.19996900      0.01454850     -0.01217410      0.00440106       1
O               3.52364000     14.74070000     12.99060000     -0.02371360     -0.01149950     -0.01531850       8
H               5.32998000     14.80220000     13.30940000     -0.00813163      0.00475185     -0.00623685       1
H               2.78949000     13.72430000     11.47190000      0.01673240      0.01683170      0.01962980       1
O              14.43540000      5.44628000      4.62663000     -0.06157570      0.01740120      0.01186300       8
H              14.37700000      4.18294000      5.96286000     -0.00391368      0.01636070     -0.00211577       1
H              12.66600000      6.39348000      4.78928000      0.06483080     -0.03063650     -0.00388645       1
O               9.08713000      3.42053000     12.93190000      0.04384010      0.00603199      0.02874980       8
H               7.29799000      2.89887000     12.77410000      0.01313210     -0.01073820     -0.00363490       1
H              10.40480000      2.07039000     13.14920000     -0.03091790      0.00988278     -0.01615600       1
O              13.91280000     14.40130000     13.16010000      0.00410056      0.03858660      0.06968290       8
H              14.82460000     15.56630000     12.07910000      0.00202621      0.00128866      0.00435615       1
H              13.45580000     15.45040000     14.88370000      0.00168697     -0.04009270     -0.05953680       1
O              17.31140000      0.88478700     11.48790000      0.08533120      0.02359590      0.02971380       8
H              18.43490000      1.01373000     13.41400000     -0.04438350      0.00626364     -0.08806910       1
H              18.42670000      1.72159000      9.94278000     -0.04518230     -0.01406640      0.06764030       1
