192
TotEnergy=-1103.05766000 cutoff=-1.00000000 nneightol=1.20000000 pbc="T T T" Lattice="23.20419000       0.00000000       0.00000000      -0.00000100      23.20419000       0.00000000      -0.00000100      -0.00000100      23.20419000" Properties=species:S:1:pos:R:3:force:R:3:Z:I:1
O               0.19240600     14.16020000      6.82123000     -0.08287080     -0.01515800     -0.02671640       8
H              -0.79960200     12.65760000      5.78049000      0.03945930      0.04287140      0.03643730       1
H              22.04810000     15.56830000      6.90782000      0.04536620     -0.03706660     -0.00713502       1
O              10.74950000     20.49530000     16.53880000     -0.03776210      0.02034370      0.02186800       8
H              10.87120000     22.42980000     16.35640000      0.00677145     -0.04174960      0.01096830       1
H               9.25341000     20.02230000     17.71810000      0.03728850      0.01635390     -0.03919710       1
O              16.03450000     12.72360000     16.56060000     -0.13213800      0.01401690      0.06441930       8
H              17.58590000     13.16610000     16.08170000      0.09539290      0.03200140     -0.02080400       1
H              15.05770000     14.19510000     17.63650000      0.03431480     -0.03505660     -0.03194610       1
O               3.33401000     17.79130000     13.49160000     -0.07751210     -0.09708230      0.07828590       8
H               4.18750000     18.89630000     12.63700000      0.06673800      0.09691010     -0.06730510       1
H               1.56387000     18.21810000     13.38120000      0.00453227      0.00235503     -0.00818883       1
O               3.81360000      8.59889000      7.18481000     -0.01586410      0.04564750      0.02132500       8
H               3.65040000      6.74851000      7.37546000     -0.00096880      0.01621130      0.02450370       1
H               3.40854000      9.90076000      8.72297000      0.00743442     -0.06265390     -0.03625910       1
O               6.04006000     -0.45255300     18.99660000     -0.06231790      0.00485843     -0.01197720       8
H               5.96372000     -0.36091300     17.05010000      0.00921073     -0.00648057      0.03600840       1
H               4.16948000     -0.19912400     19.52710000      0.05260680     -0.00759962     -0.01347110       1
O               7.60563000     15.31470000     10.59720000     -0.02067660      0.03818740      0.07912840       8
H               8.50083000     17.11190000     11.54120000     -0.03031490     -0.08352130     -0.03739300       1
H               6.26332000     14.41760000     11.84640000      0.06209700      0.03860170     -0.03230310       1
O               8.72764000      1.97099000     22.58710000     -0.01242200     -0.02940410     -0.02410960       8
H              10.53420000      1.59789000     22.44860000     -0.00757877      0.00137185      0.00270059       1
H               7.79008000      0.73858800     21.38840000      0.02276460      0.03259310      0.02006580       1
O               1.45821000      1.77070000     15.29950000      0.06682660     -0.08988010     -0.12729200       8
H               1.05085000      3.26624000     15.74920000     -0.03310590      0.16696000      0.02487810       1
H               1.02307000      1.03734000     16.72160000     -0.03577240     -0.07359400      0.10118900       1
O              -0.22076900      0.08875200     19.66170000     -0.02983510     -0.06972540      0.03845250       8
H              22.33430000     21.43960000     20.23490000      0.02419790      0.05598650     -0.02941610       1
H              22.05800000      1.06414000     20.92800000      0.01740340      0.00582296     -0.00520227       1
O              21.88520000     20.16530000      5.39731000      0.04176270     -0.03110590     -0.05087110       8
H              20.47620000     20.50730000      6.24390000     -0.06418510      0.03615380      0.07201080       1
H              20.87090000     19.35060000      4.04340000      0.02644980      0.00003316     -0.01633820       1
O               8.79420000     13.92770000      6.01660000      0.04752110     -0.08236330     -0.25533500       8
H              10.10430000     14.99010000      5.24689000     -0.00624192      0.00076028     -0.00305537       1
H               8.54441000     14.50000000      7.41770000     -0.05081420      0.09934930      0.24443300       1
O              21.40560000     18.13820000     21.24730000      0.03708350      0.08960160      0.07234070       8
H              22.36000000     16.77260000     20.68530000      0.02127680     -0.03304340     -0.02303530       1
H              22.84730000     19.09090000     22.57260000     -0.06328550     -0.03737120     -0.04316090       1
O               0.62863300      7.78653000     15.09100000      0.02793540      0.02216720     -0.03137090       8
H               1.08084000      8.82338000     13.52280000     -0.00530597     -0.02103690      0.04329990       1
H               2.04565000      7.80629000     16.33370000     -0.02325010      0.00245699     -0.01726820       1
O              22.52030000      1.19974000     10.53890000     -0.02889000     -0.00442800     -0.11481200       8
H               0.58555800      2.01231000      9.35964000     -0.01328310     -0.01350830      0.01947060       1
H              -0.02902400      1.26437000     12.07350000      0.04819620      0.00526112      0.09906820       1
O               7.46894000      6.76646000     21.37680000      0.01185570     -0.05794940     -0.00591170       8
H               8.10593000      4.87115000     21.78880000     -0.01985840      0.05264880     -0.00012872       1
H               6.71092000      7.51163000     -0.34877300      0.00583621     -0.01035540      0.00399160       1
O              22.34450000     19.03800000     10.45090000      0.14552900      0.06734350     -0.00720764       8
H              21.30520000     17.82100000     10.48020000     -0.12012500     -0.11794300      0.00696144       1
H              21.69880000     20.58850000     10.82030000     -0.02864470      0.05136390      0.00773092       1
O              12.26530000     22.55660000      8.49501000     -0.07863450     -0.11682100     -0.05719360       8
H              12.99310000     21.71570000      6.99160000     -0.00452859      0.02386050      0.01933920       1
H              13.16310000      0.62241500      9.01655000      0.08055870      0.10279900      0.03685260       1
O              18.73630000     18.20060000      2.21211000     -0.01128110     -0.04956350      0.01233990       8
H              18.41120000     16.64100000      3.43427000      0.00944369      0.02647080     -0.04819870       1
H              18.80240000     17.69510000      0.34715200      0.00855628      0.00785246      0.04334230       1
O               9.05645000     11.96010000     18.25840000      0.07022210      0.00324218     -0.02731330       8
H              10.91610000     11.73520000     17.35750000     -0.08266200      0.01723310      0.03969090       1
H               8.87941000     13.74260000     18.79360000      0.01057640     -0.02079600     -0.01360370       1
O               6.06594000     16.92180000     17.58870000     -0.04787890      0.03641290     -0.03466580       8
H               5.81053000     17.72160000     19.18670000      0.00287373      0.00413233      0.01068080       1
H               4.63704000     17.80800000     16.34640000      0.05594170     -0.03364410      0.03107240       1
O              11.75950000     10.80520000      7.70459000      0.02574330     -0.01582320      0.11102500       8
H              10.59870000     11.76440000      6.79154000     -0.03300230      0.02743130     -0.01181040       1
H              11.85410000     11.46750000      9.71922000     -0.00866648     -0.02762080     -0.09433910       1
O               4.40687000      2.05418000      2.97955000     -0.08357240     -0.05906560      0.06215030       8
H               5.36010000      0.54948800      3.56535000      0.00622965     -0.02055250     -0.00006051       1
H               5.46686000      3.04195000      2.21539000      0.08950780      0.07962730     -0.06435050       1
O               8.13255000      2.70459000     10.77340000      0.00747704      0.03354200      0.00919216       8
H               9.32270000      2.09503000      9.49136000     -0.00451682      0.02083270      0.01236040       1
H               8.51345000      4.54460000     11.37220000      0.00082563     -0.05685660     -0.03252940       1
O              18.06450000     13.66000000      4.52472000     -0.07136960      0.10958100     -0.16456000       8
H              16.52280000     12.92020000      3.59038000      0.04504070      0.00620771      0.02187360       1
H              18.38360000     12.66340000      5.73709000      0.02331120     -0.11234800      0.13061200       1
O              11.54560000     18.57810000     11.60230000     -0.06091730      0.07690550      0.02837280       8
H              10.97130000     20.11760000     10.45730000      0.03157010     -0.04253420      0.01845360       1
H              11.07830000     19.48600000     13.33030000      0.01975080     -0.03471070     -0.03957650       1
O              19.92610000      5.21379000     10.85910000      0.00122723     -0.01418430      0.00979917       8
H              20.56180000      3.29751000     10.95260000      0.00189573      0.05745330      0.00550238       1
H              20.43610000      6.33623000     12.30220000     -0.00866478     -0.03961330     -0.02619330       1
O              11.05300000      7.03961000     12.19630000      0.01880940      0.07039610      0.03304320       8
H              10.62110000      6.94505000     13.99590000      0.00274203     -0.01873060     -0.00322656       1
H              11.87380000      8.83484000     12.46180000     -0.02741090     -0.04792770     -0.02333750       1
O              13.23440000      1.95079000     15.94850000     -0.07570730     -0.00332271      0.01571820       8
H              14.75670000      1.20905000     16.25670000      0.06431360     -0.02018810      0.00303526       1
H              13.03400000      2.64366000     14.30830000      0.01816680      0.00718158     -0.01948440       1
O              14.77380000      9.92348000      1.61356000      0.02434370     -0.02180010     -0.02024910       8
H              15.76080000      9.89133000     -0.14632600     -0.03211570     -0.01385350      0.05083100       1
H              14.93790000      8.16973000      2.54919000      0.00118938      0.04007520     -0.03812670       1
O              17.81390000     19.32900000     16.29390000     -0.02841030      0.00436035      0.04705180       8
H              17.28810000     18.32630000     14.96330000      0.00175238     -0.02524090     -0.04332010       1
H              16.38600000     18.85420000     17.43640000      0.03013000      0.01371910     -0.00332822       1
O               6.44917000      8.36060000      2.85021000      0.01598530      0.03753960     -0.04731160       8
H               7.39857000      9.86862000      1.92205000     -0.00185495     -0.03776840      0.02492420       1
H               5.58372000      9.21834000      4.15291000     -0.01328810      0.00159991      0.02164870       1
O              11.33520000      5.85774000     17.63050000      0.08763540     -0.06166240     -0.04458590       8
H              11.83190000      3.90266000     17.75640000     -0.01639170      0.06523190     -0.00862783       1
H               9.94726000      6.27046000     18.48080000     -0.07662340      0.01928440      0.05446520       1
O               1.24059000     14.87030000     19.23080000     -0.11155000     -0.09178710      0.02420170       8
H               1.41552000     13.64370000     20.65370000      0.00420365      0.00731730     -0.01843390       1
H               2.61102000     15.75610000     19.14980000      0.11752800      0.06929620     -0.00373337       1
O              16.21000000     10.31700000      7.47699000      0.11988900     -0.02002930     -0.07502710       8
H              14.60860000     10.38730000      6.95536000     -0.09237030      0.00664857     -0.01270210       1
H              16.38670000     10.35020000      9.13065000     -0.00025898     -0.00021039      0.09870910       1
O               9.81938000     11.39210000      0.57771800      0.06859820     -0.00719529      0.11390800       8
H              11.62150000     10.43900000      0.99588900     -0.04875660      0.03522650     -0.00928385       1
H               9.54489000     10.97600000     22.19180000     -0.01757770     -0.02477620     -0.10642800       1
O               1.91113000     10.90090000     -0.34342900     -0.02249480      0.14666700      0.09025760       8
H               3.08500000     10.74850000      1.03817000      0.00312686      0.01932040      0.00350866       1
H               2.16804000      9.50997000     22.12110000      0.01872040     -0.15746900     -0.10209100       1
O               9.67990000      5.94268000      5.71421000     -0.02429370     -0.10851400     -0.06491950       8
H               9.86211000      7.37722000      6.55717000      0.00001821      0.08864110      0.04604740       1
H               8.17974000      5.92774000      4.56740000      0.02984060      0.02124380      0.02625820       1
O              16.21920000      8.81709000     19.85480000      0.05030110      0.06725020     -0.00408588       8
H              16.14830000     10.29830000     18.60640000      0.00343916     -0.02789650      0.02058230       1
H              14.90120000      7.80109000     19.45380000     -0.05778440     -0.03946900     -0.01584060       1
O              14.81360000      3.84016000     11.27720000      0.06392130      0.01441130     -0.03797710       8
H              13.89670000      5.46903000     11.13470000      0.01171910     -0.02289230      0.00134921       1
H              16.81340000      4.12911000     10.56550000     -0.07399310      0.00363141      0.03892680       1
O              12.74980000     12.11670000     12.99300000     -0.08903760     -0.02185070     -0.08417000       8
H              13.95110000     12.29720000     14.12290000      0.09784920      0.00700894      0.08501620       1
H              12.28440000     13.78490000     12.57460000     -0.01396800      0.01836490     -0.00575546       1
O              20.99380000     13.39150000     15.57930000     -0.07003090     -0.02074680     -0.02629370       8
H              22.03360000     14.27010000     16.62430000      0.04786000      0.02580230      0.03425850       1
H              21.76680000     12.75950000     14.12380000      0.02212050     -0.00750143     -0.01379670       1
O               5.29452000     17.60580000      0.13780000      0.01340750     -0.02983570      0.02606060       8
H               5.11169000     16.24540000      1.45399000      0.01132640      0.00186876     -0.02145610       1
H               3.77185000     18.43690000      0.56218500     -0.01991330      0.02611200     -0.00160151       1
O               1.48268000     20.89750000      1.48514000      0.03803280      0.04789730     -0.04559780       8
H               2.32501000     22.61310000      1.62849000     -0.00912144     -0.02996920     -0.03890170       1
H               1.17683000     21.06830000      3.17487000     -0.03425330     -0.02677170      0.06759470       1
O              14.04630000      1.42284000     22.76030000     -0.01924960     -0.21944700     -0.13192500       8
H              14.52710000      2.78845000      0.12710200      0.06808500      0.20552600      0.09719120       1
H              15.39350000      1.04505000     21.38270000     -0.04055520      0.00919907      0.03248150       1
O              13.25930000     16.58560000     18.80780000      0.04631940      0.01132390     -0.21480200       8
H              12.58750000     18.18850000     17.34520000      0.01565640     -0.05443480      0.07000850       1
H              12.66970000     16.93280000     20.28640000     -0.05656600      0.04047020      0.12968500       1
O               3.75182000     18.25550000      7.52012000     -0.06731240      0.00668812      0.06674610       8
H               1.86371000     19.06420000      7.99847000      0.07461860     -0.03739430     -0.01869220       1
H               4.15174000     17.14240000      9.08362000     -0.00538539      0.03326450     -0.05126300       1
O               3.43965000      3.30409000      7.91273000      0.02115010     -0.01371020     -0.04985520       8
H               3.51069000      3.06156000      5.94361000     -0.00136643      0.00255249      0.05338320       1
H               5.11120000      2.61882000      8.47157000     -0.02271850      0.01493700      0.00088806       1
O              22.74800000      9.39654000      4.53215000      0.07015850      0.02425400      0.02076910       8
H              -0.11275600     10.06450000      2.87849000     -0.00226065      0.00128409     -0.00801887       1
H               1.49702000      9.16054000      5.31687000     -0.05615870      0.00115103     -0.01063210       1
O               4.38282000     13.48400000      3.60776000      0.03269120     -0.01726320     -0.05772560       8
H               3.21198000     13.93730000      4.78983000     -0.03710690      0.01976450      0.04593050       1
H               6.01787000     13.23840000      4.37082000      0.00415734      0.01006480      0.01012340       1
O              14.19040000      5.22742000      3.58712000      0.07647750      0.00308929      0.01332230       8
H              12.53950000      5.80608000      3.74868000     -0.04384720      0.00676137      0.02230890       1
H              15.20470000      5.75609000      5.10691000     -0.02784600     -0.01436020     -0.02930510       1
O              20.25670000      5.53659000      4.06183000     -0.07673700     -0.09574060      0.05685530       8
H              19.80900000      5.15730000      5.93820000      0.02125260      0.01951180     -0.06171190       1
H              21.11270000      7.01914000      3.95973000      0.03386010      0.06490760      0.01486200       1
O              16.48180000     18.65690000     11.01410000      0.09992640      0.07196640      0.04435140       8
H              14.85190000     18.22880000     10.77030000     -0.07746700     -0.00832636     -0.00460437       1
H              16.54140000     20.35650000     12.05300000     -0.01128680     -0.06128350     -0.04154750       1
O              11.51700000     18.50920000     -0.33373900      0.01031820      0.04977100     -0.08920500       8
H              11.69670000     17.52900000      0.99614200      0.02027760     -0.07353350      0.09252410       1
H              10.12350000     19.46780000      0.07287300     -0.03509580      0.02655060      0.00199780       1
O               1.71981000     11.46540000     11.20890000      0.04560880      0.09075860      0.00587576       8
H               0.97601300     12.56050000      9.81837000      0.00644970     -0.01806530      0.01792510       1
H               3.04454000     12.91520000     12.19800000     -0.05477540     -0.07485960     -0.03322980       1
O              19.99950000      5.47385000     17.08100000      0.02486940      0.00981285     -0.00916604       8
H              18.23320000      5.74554000     17.32040000      0.00324241      0.01996480     -0.00152324       1
H              21.04260000      6.96618000     16.46520000     -0.02360170     -0.02525220      0.01372900       1
O              12.85650000     16.71260000      4.25333000      0.01196500      0.04007050      0.00304110       8
H              13.68830000     18.69720000      4.13669000     -0.01229160     -0.05115750      0.00008456       1
H              14.05020000     15.53920000      4.96659000      0.00161087      0.01058600     -0.00169027       1
O              18.09420000      1.02177000     18.08040000     -0.03415960     -0.03001390      0.00968295       8
H              19.23040000     -0.31867100     17.73360000     -0.00508014     -0.02222170     -0.00231596       1
H              19.22900000      2.33303000     17.87240000      0.02339350      0.05032490     -0.00522350       1
O               6.32607000     21.09990000      4.20737000      0.01776160     -0.05808990     -0.05039730       8
H               6.69910000     19.72060000      2.59661000     -0.02607740      0.05505470      0.06662800       1
H               5.37384000     20.12570000      5.51449000      0.01140440      0.00073892     -0.01098400       1
O               0.19743500      3.53578000      0.91400000      0.06265210     -0.02636240     -0.02622510       8
H              21.96440000      4.33458000      1.68496000      0.00811880     -0.00590243      0.02834690       1
H               1.91618000      2.93483000      1.85258000     -0.07478160      0.02984070     -0.01663220       1
O               5.69855000     22.59960000     13.91600000     -0.07123520     -0.05762720      0.05802970       8
H               7.14473000     -0.13841500     13.14040000      0.04313700      0.05181700     -0.03341620       1
H               4.26669000      0.42388800     14.56900000      0.02067060      0.01571060     -0.03317740       1
O               2.54029000      6.67527000     19.57310000      0.00863923     -0.06348230      0.08023970       8
H               4.20648000      6.02444000     20.40180000     -0.02605840      0.02951160     -0.03446350       1
H               1.39529000      5.62036000     20.82270000      0.01929670      0.03179970     -0.04141800       1
O               5.09131000     12.47380000     14.95010000      0.02667410     -0.02313300      0.02885960       8
H               4.22046000     13.52430000     16.12670000     -0.00631055      0.00777861      0.00004284       1
H               6.44316000     11.77620000     16.20180000     -0.01962120      0.01614370     -0.03781540       1
O              15.09380000     21.05020000      3.82915000      0.03878050      0.01402350     -0.06789160       8
H              16.85050000     20.17680000      3.89868000     -0.04590290      0.02191900     -0.01523770       1
H              15.13590000     21.82540000      1.81921000     -0.01195830     -0.02620340      0.08610640       1
