192
TotEnergy=-1103.39321000 cutoff=-1.00000000 nneightol=1.20000000 pbc="T T T" Lattice="24.87731000       0.00000000       0.00000000      -0.00000100      24.87731000       0.00000000      -0.00000100      -0.00000100      24.87731000" Properties=species:S:1:pos:R:3:force:R:3:Z:I:1
O              25.87850000     -5.21165000    -32.95540000     -0.07479380     -0.01547140      0.02330330       8
H              23.95030000     -4.39359000    -33.01540000      0.07240370     -0.04746220     -0.00639003       1
H              25.73440000     -7.23498000    -32.62480000     -0.00487854      0.06190160     -0.02313630       1
O              51.22750000     45.81750000     -2.36123000     -0.04200220     -0.04201240      0.00264259       8
H              52.25090000     47.18130000     -2.02661000      0.03754000      0.03337610     -0.00827377       1
H              51.15630000     45.26080000     -4.09848000      0.00911500      0.01201220      0.00026502       1
O              15.52180000      1.29568000     16.44290000     -0.02072660      0.02243620      0.05471220       8
H              15.62500000      2.71052000     17.77020000      0.00864826     -0.01295430     -0.03222430       1
H              14.59450000      0.10071100     17.59010000      0.01875270      0.00224670     -0.02975940       1
O              -6.45400000     -8.96535000     -2.44460000      0.04041380      0.02104640      0.01433180       8
H              -4.65291000     -9.55694000     -2.78689000     -0.04140110      0.00781508      0.01044160       1
H              -6.30723000     -7.44266000     -1.19110000     -0.00071318     -0.02925310     -0.03234080       1
O               5.22787000     32.93850000     19.21740000      0.05698490     -0.01118010     -0.03624280       8
H               6.76886000     33.50250000     20.15470000     -0.02461870     -0.00167077     -0.00956690       1
H               5.96776000     32.70320000     17.42420000     -0.02155850      0.00434748      0.03755430       1
O              -6.04599000     10.43030000      7.25549000     -0.04182140      0.01347600     -0.03502850       8
H              -6.87571000     12.09040000      7.45767000      0.01709910     -0.00638639      0.01261970       1
H              -7.14088000      9.80778000      5.84536000      0.01350700     -0.01032130      0.02522790       1
O              47.24300000     29.65980000     13.50190000      0.11884800      0.25116200      0.02298700       8
H              49.06520000     29.35450000     13.77350000     -0.01034010      0.01294710     -0.00443382       1
H              46.76190000     28.21470000     13.43470000     -0.10629900     -0.26357100     -0.01546460       1
O               0.62536200    -32.48050000      7.77883000      0.03808970      0.03158760      0.06549760       8
H               1.99540000    -32.06430000      9.29792000     -0.01835150     -0.03142190     -0.03370380       1
H              -0.09317600    -30.77980000      8.05838000     -0.01761430     -0.00984933     -0.02169960       1
O              33.02920000    -34.90960000     17.75840000     -0.00019989     -0.02339680      0.02634850       8
H              32.42680000    -35.48360000     16.14110000     -0.01258140     -0.00294663      0.00422771       1
H              32.73780000    -36.24780000     19.11470000      0.00269739      0.02787730     -0.02842320       1
O               9.31400000    -28.98990000    -25.20820000      0.02604910      0.03220420     -0.00243386       8
H              10.81620000    -27.90360000    -25.46720000     -0.01088570     -0.01499740     -0.00141443       1
H               9.63815000    -29.54200000    -23.48060000     -0.01422550     -0.01131450     -0.00444026       1
O             -16.02370000      3.75614000      8.36560000     -0.02842660     -0.11459700     -0.14706300       8
H             -15.07020000      4.31521000      6.85549000     -0.00828955     -0.01439980      0.01627770       1
H             -15.62420000      4.81369000      9.48866000      0.04277760      0.12024100      0.13151200       1
O             -13.45590000     29.77420000     53.30490000      0.02346230     -0.01077600     -0.02483080       8
H             -15.18690000     30.04470000     52.92190000     -0.02025880      0.00017552     -0.00683567       1
H             -12.73790000     28.95330000     51.73800000     -0.00283649      0.00845023      0.03132870       1
O              12.36810000    -34.85330000    -15.72830000      0.00230367     -0.05527710      0.01115440       8
H              12.67280000    -34.54270000    -17.49150000     -0.00330980     -0.00177024     -0.01161670       1
H              12.03430000    -36.77010000    -15.67410000      0.00578892      0.05611700      0.00476808       1
O              29.51820000     13.84280000     38.37200000     -0.06029620     -0.02206220     -0.01835630       8
H              27.78820000     14.14310000     39.15070000      0.03529560     -0.00849725      0.00605342       1
H              28.86150000     12.87270000     36.85850000      0.02797970      0.01700940      0.02671160       1
O              -0.93786900      2.30236000      2.85652000     -0.00238466     -0.04878320     -0.01319920       8
H              -0.68165800      0.36101200      2.67751000      0.00102133      0.05742490      0.01104600       1
H               0.52670600      3.08799000      3.57196000      0.00658803     -0.00840230      0.00528273       1
O             -31.15910000     24.27050000     32.95400000      0.00205772      0.06532160     -0.01491960       8
H             -31.61630000     26.03340000     32.12410000      0.01738150     -0.05522350      0.01213630       1
H             -32.64780000     23.29360000     33.02530000     -0.01805940     -0.01149150     -0.00668937       1
O             -34.64860000     12.28740000     24.96640000      0.02210370      0.03088860     -0.02313670       8
H             -35.33280000     10.97570000     23.90700000     -0.00706587      0.00097069     -0.00890606       1
H             -33.79710000     13.47060000     23.65870000     -0.01499150     -0.02752690      0.03887580       1
O             -21.77380000     67.09750000    -21.43100000     -0.01258860      0.04001610      0.08490880       8
H             -22.81560000     66.90970000    -19.61000000      0.03291830     -0.00142954     -0.05685440       1
H             -22.46990000     66.00140000    -22.60080000     -0.01556050     -0.03193910     -0.02365060       1
O              70.77490000     20.35980000     39.45850000      0.00210866      0.08221210     -0.01342030       8
H              70.42370000     22.35540000     39.01510000      0.00733798     -0.06173920      0.00727862       1
H              69.31910000     19.88420000     40.37690000     -0.01718750     -0.01054690      0.00911543       1
O              56.05560000    -20.53740000      2.28267000      0.01752930      0.00966184     -0.01648170       8
H              54.87720000    -20.69150000      3.64147000     -0.00695791     -0.00723151      0.00025510       1
H              55.96490000    -21.93010000      1.04962000     -0.01558720      0.00986159      0.02292360       1
O              29.09960000     18.28050000    -13.51070000     -0.00326011      0.05459510     -0.06680550       8
H              30.49560000     18.60870000    -14.82790000     -0.01694240     -0.02846760      0.05599590       1
H              29.22450000     17.21310000    -12.05770000      0.02576390     -0.01483490     -0.00804532       1
O             -13.45990000      4.39121000     63.50520000     -0.04539020     -0.02509480     -0.02772280       8
H             -12.87570000      5.97433000     63.89350000      0.03761020      0.04869010      0.01673180       1
H             -12.25280000      3.17564000     63.90410000      0.02413780     -0.02177520      0.01216830       1
O               5.00793000      0.25995300     -0.56977600      0.06192550     -0.10810100      0.16524800       8
H               5.00979000      1.10868000     -1.92487000     -0.00313192      0.09153560     -0.16006000       1
H               6.85037000     -0.35178500     -0.33724300     -0.05561710      0.00140397     -0.00849551       1
O              43.77510000      3.38656000     29.28420000      0.01186230      0.00512614      0.00493363       8
H              43.06710000      5.08765000     29.18270000      0.00723082     -0.00526162      0.00152423       1
H              45.63620000      3.44768000     29.03140000     -0.02404970     -0.00114808     -0.00185860       1
O              -1.50289000     61.07860000     30.91340000     -0.02671520      0.01973930     -0.00924460       8
H              -3.57615000     60.80420000     30.84170000      0.06432090      0.02179620      0.02042590       1
H              -0.85926900     62.84240000     31.22890000     -0.02823130     -0.03488570     -0.00708237       1
O               9.50892000     34.69240000     10.51960000     -0.03787050      0.04433180     -0.03931410       8
H               8.29570000     36.10480000      9.33860000      0.03699210     -0.05884040      0.05127930       1
H               8.52835000     33.74050000     11.79170000     -0.00403706      0.02330520     -0.01914570       1
O             -15.85350000     20.01940000     19.17740000      0.00719096      0.03724910     -0.12505400       8
H             -15.83610000     18.29340000     18.88370000     -0.00521932     -0.04832580     -0.03021340       1
H             -15.76920000     19.92540000     20.80540000      0.00029195      0.01201550      0.15209700       1
O              31.84370000     35.40780000     51.69020000     -0.03347000      0.09476380      0.01032020       8
H              31.82140000     33.69750000     51.49000000     -0.02077020     -0.05828980     -0.00115305       1
H              30.06660000     36.33220000     51.77040000      0.04465700     -0.04267070     -0.00351984       1
O              12.86390000     34.46830000     21.03140000     -0.00863746      0.00303362      0.02345310       8
H              12.99840000     35.51230000     19.53360000      0.00963317     -0.00559987     -0.00727167       1
H              13.85530000     32.94410000     21.09500000      0.00701296     -0.00139896     -0.02117530       1
O               4.62166000    -26.75920000     16.80470000      0.00121481      0.05036230     -0.00789527       8
H               3.15104000    -27.73430000     16.48060000     -0.01316350     -0.02712350      0.00068503       1
H               6.05583000    -27.77530000     16.78240000      0.02178750     -0.02409030      0.00617677       1
O              -0.19547600     21.21810000      2.60039000     -0.03712870      0.02981980      0.01541000       8
H               1.14373000     20.19780000      3.17486000      0.02820970     -0.02879490      0.00670006       1
H               0.22282100     21.49490000      0.89968100      0.00493795     -0.00202229     -0.03286310       1
O               2.55616000      2.62841000     13.63980000      0.00179790     -0.02673820     -0.00298862       8
H               2.38138000      1.32149000     12.29140000     -0.00206446      0.02156140      0.00472890       1
H               3.06205000      1.49688000     14.99140000     -0.00104181      0.00910690     -0.00040841       1
O             -33.69290000     54.98550000    -29.51280000      0.06542500     -0.00095013      0.02710080       8
H             -31.60010000     55.60000000    -29.59480000     -0.07728800     -0.02656060     -0.00048374       1
H             -33.97630000     53.93710000    -27.92570000      0.01504300      0.02373680     -0.02492220       1
O               3.71874000     54.09400000    -17.54920000     -0.01819340     -0.08464800      0.01841240       8
H               5.44780000     53.30660000    -17.51850000     -0.01968440      0.02502330      0.00747771       1
H               2.71275000     52.43560000    -16.80180000      0.03736030      0.06217100     -0.02695870       1
O             -37.04550000     40.47550000      4.00929000      0.10280900     -0.08110750     -0.04765330       8
H             -36.82390000     39.09470000      2.53162000      0.01896770      0.04122830      0.04912190       1
H             -38.66480000     40.70130000      3.63437000     -0.10855600      0.04002510     -0.00651039       1
O              14.01040000     33.92560000     13.91020000      0.00788570     -0.02163520     -0.07645730       8
H              15.82930000     33.32230000     13.28920000     -0.03530860      0.02352440      0.02423200       1
H              13.17820000     34.00460000     12.14800000      0.01169970      0.00513367      0.04924520       1
O             -18.58880000    -11.89300000      6.87062000     -0.00217657     -0.05719590      0.00600474       8
H             -17.63370000    -12.73770000      5.46199000     -0.02329330      0.01574640      0.02301050       1
H             -19.91360000    -13.23110000      7.44131000      0.02800460      0.03314580     -0.02038540       1
O             -45.83620000      2.04859000     19.76250000     -0.01716750      0.06817820      0.02780490       8
H             -45.29640000      0.98383200     18.51550000      0.01670280     -0.05724920     -0.03799690       1
H             -45.47800000      3.69799000     19.02350000     -0.00199851     -0.00271537      0.01517900       1
O             -22.29330000    -15.08120000     33.77250000      0.01952560     -0.02069220      0.01429160       8
H             -22.33650000    -16.90180000     33.59390000      0.01878570     -0.00023566     -0.00103346       1
H             -24.03140000    -14.79240000     33.59280000     -0.03077560      0.02052420     -0.01236420       1
O              16.64950000     19.18770000     30.18570000     -0.01336150     -0.09885970      0.02089570       8
H              17.61490000     18.08820000     31.63520000     -0.03496220      0.03608280     -0.04902470       1
H              15.26250000     17.74870000     29.50790000      0.04519850      0.05652200      0.02708010       1
O             -22.75770000     -0.39440800     34.36770000      0.02407030     -0.05120480     -0.00940298       8
H             -21.62310000     -2.00236000     34.43670000     -0.03794100      0.05085990     -0.00120156       1
H             -24.32400000     -0.96044300     33.47860000      0.00997818     -0.00508796      0.01349420       1
O              43.52880000      8.53571000     37.83430000      0.09248980     -0.03245970     -0.05253650       8
H              44.56110000      6.97421000     38.37800000     -0.02669820      0.03587410     -0.00862775       1
H              44.70540000      8.92494000     36.21630000     -0.05544700     -0.00648808      0.05480110       1
O              -8.11139000    -32.64750000     -7.51268000      0.00802061     -0.01786560      0.08307810       8
H              -7.37657000    -33.12990000     -5.55845000     -0.02699830      0.01968150     -0.06969370       1
H              -9.75281000    -33.54760000     -7.45899000      0.01973140      0.00342575     -0.00882257       1
O              56.79790000    -18.39150000    -10.65150000      0.00234724      0.05112700      0.02149610       8
H              58.39770000    -19.10930000    -11.06770000     -0.00159295     -0.03119520      0.00164395       1
H              55.33610000    -19.28870000    -11.04990000     -0.01563820     -0.02720940     -0.01711700       1
O               9.58053000     -1.15756000     11.92650000      0.11676700      0.02787730     -0.09652250       8
H               9.08604000      0.26858300     10.96620000     -0.00611231      0.01615760     -0.00265275       1
H               8.42709000     -1.62472000     12.96150000     -0.11062500     -0.03753840      0.09465640       1
O             -35.29430000     -2.13108000     48.94850000      0.01836960     -0.00321546     -0.05613140       8
H             -35.03840000     -2.17485000     46.72650000     -0.00556861     -0.01416130      0.07846890       1
H             -33.93610000     -3.07028000     49.85430000     -0.01604100      0.01324370     -0.02539490       1
O              12.88690000    -11.76970000     -8.08049000     -0.00995961     -0.03291780     -0.02483070       8
H              11.07020000    -11.38830000     -8.20884000      0.01781610      0.00411148      0.00828865       1
H              13.16730000    -13.18320000     -9.39040000      0.00387100      0.02813690      0.02533470       1
O              22.12310000     16.21710000     11.98500000      0.03646920     -0.07484660     -0.04856850       8
H              21.84270000     17.82550000     12.50520000     -0.01235080      0.07131050      0.02629910       1
H              23.19430000     16.35200000     10.42350000     -0.01827420     -0.00399397      0.02524310       1
O              14.26140000     22.03450000     -5.79997000     -0.05550990      0.03078340      0.01912360       8
H              12.51160000     21.39500000     -6.06032000      0.01238230      0.00244893      0.00636092       1
H              15.30890000     20.86420000     -6.54863000      0.03505730     -0.04219270     -0.02120520       1
O              23.10570000     46.59390000     32.37760000     -0.07072830      0.04179110     -0.02058400       8
H              21.16110000     47.36880000     32.33090000      0.06071960     -0.02200150      0.01676500       1
H              23.37720000     46.76160000     30.55260000      0.00696690     -0.00878322      0.00576388       1
O              -9.21180000      7.75511000      3.76939000      0.18879300      0.09596200     -0.00555368       8
H              -9.17854000      9.24659000      2.68717000     -0.00470204     -0.01270770      0.00120228       1
H             -10.66520000      7.11191000      3.77232000     -0.17894500     -0.07631460      0.00046883       1
O              19.52040000    -24.41840000     13.21200000     -0.01699190     -0.00430238     -0.00014947       8
H              18.90410000    -24.47620000     11.40670000      0.00542441     -0.00295921      0.03573940       1
H              18.12480000    -24.15750000     14.51430000      0.01323120     -0.00230888     -0.02955790       1
O               0.18146300     14.72290000     41.05540000     -0.01568840     -0.02267740      0.06596650       8
H              -0.77252200     13.99830000     42.71890000      0.02326660      0.01951580     -0.06075900       1
H              -0.94818700     14.93700000     39.63980000     -0.01619150      0.00290563     -0.00028050       1
O              43.91060000     44.91620000      0.72588600      0.01458170     -0.03753410      0.02531300       8
H              45.78760000     44.98590000      0.76097000     -0.02862220      0.00030083      0.00608807       1
H              43.34970000     43.86030000      2.28394000      0.01453600      0.03764810     -0.02311130       1
O              22.26600000     12.43680000    -29.27500000     -0.08787610     -0.01194190     -0.06932040       8
H              23.71580000     11.40900000    -29.08190000      0.01982870     -0.02272810      0.00437085       1
H              20.85370000     11.41490000    -30.53820000      0.07177360      0.04003060      0.06216480       1
O             -16.40860000     43.02020000      3.83477000      0.08618940      0.03571920      0.05973250       8
H             -18.08580000     42.93110000      3.60923000     -0.08943060     -0.01199470     -0.01524160       1
H             -16.21450000     43.90200000      5.58475000      0.00037056     -0.03006690     -0.04045690       1
O               9.27341000    -30.25290000     33.68340000      0.07110490      0.02212460      0.04136720       8
H              10.90170000    -31.16720000     34.41390000     -0.06275820      0.01592990     -0.02859300       1
H               9.70827000    -28.46510000     34.33560000     -0.01892030     -0.03875170     -0.01206600       1
O               1.77274000     37.54160000      1.58203000     -0.06892430     -0.05302490     -0.02760970       8
H               0.06155600     36.97440000      2.36620000      0.05281960      0.01923650     -0.00019049       1
H               1.44004000     36.51430000     -0.04385100      0.02351670      0.02631820      0.02659360       1
O              -6.88698000     -9.25353000      9.07143000     -0.10734300      0.00044545     -0.03861890       8
H              -8.69099000     -9.30941000      9.82505000      0.03683800      0.00015559     -0.02873530       1
H              -5.99029000     -9.42395000     10.50790000      0.06031220     -0.00363700      0.06319580       1
O              -3.78708000      6.70778000     18.97970000      0.05748090     -0.04692930      0.01891370       8
H              -2.40066000      5.58760000     20.04730000     -0.05334900      0.04234400     -0.03289020       1
H              -3.36539000      6.30748000     17.19490000     -0.00819301      0.00256263      0.02285170       1
O              26.43660000    -15.11500000     -2.97194000     -0.01577000     -0.04960850     -0.01971530       8
H              25.53260000    -16.75110000     -3.27973000     -0.00600376      0.02650800      0.02639110       1
H              27.84530000    -15.90280000     -3.93056000      0.01263160      0.03170090      0.00057856       1
O              24.74630000      4.62094000     47.37250000      0.01961750     -0.03879450     -0.01752550       8
H              24.77320000      3.94703000     49.05760000     -0.01404950      0.00964919      0.01432560       1
H              25.67460000      3.17573000     46.59380000     -0.00834896      0.02579430     -0.00449205       1
O              15.14160000     27.59320000     50.23440000      0.02102490     -0.01282670      0.01750370       8
H              16.51770000     27.65620000     51.57260000     -0.02723330     -0.00354876     -0.02987580       1
H              14.89170000     25.74230000     49.83110000      0.00356779      0.01581190      0.00471371       1
O             -16.51710000     11.66080000     21.99820000      0.03184320     -0.00794767     -0.01611750       8
H             -14.79060000     11.08810000     22.35650000      0.00378474      0.00765604     -0.03148820       1
H             -16.97560000     11.12360000     23.61650000     -0.04242290      0.00370518      0.04116170       1
