192
TotEnergy=-1103.14437000 cutoff=-1.00000000 nneightol=1.20000000 pbc="T T T" Lattice="22.45127000       0.00000000       0.00000000      -0.00000100      22.45127000       0.00000000      -0.00000100      -0.00000100      22.45127000" Properties=species:S:1:pos:R:3:force:R:3:Z:I:1
O               8.26074000      4.66280000      3.01124000     -0.01031810      0.01720640     -0.03663640       8
H               8.08161000      2.85342000      3.09127000     -0.00358210     -0.00874173      0.01845420       1
H               9.06281000      5.42656000      4.43134000      0.01404960     -0.00900735      0.01930290       1
O               2.39322000     -0.03146900      1.11258000      0.01212190     -0.00093995     -0.00678545       8
H               0.97202100     21.82480000      2.01836000     -0.02012190     -0.00009161      0.01235850       1
H               2.79267000     21.08340000     22.29260000      0.00518451      0.01176180      0.00013199       1
O              12.70960000     15.82600000     17.82880000     -0.09657210     -0.01500780     -0.17653600       8
H              13.27880000     16.57660000     19.07380000      0.08224270      0.11109100      0.18563300       1
H              12.96540000     14.14430000     17.93380000      0.01158280     -0.08753380     -0.00673478       1
O              17.19380000      3.73796000      1.15793000     -0.03058480      0.01119680      0.00692399       8
H              15.69240000      3.47001000      0.11379000     -0.00819321      0.00885507      0.00908911       1
H              18.45610000      3.05124000      0.13692400      0.03980990     -0.01308110     -0.01475900       1
O              19.79040000     11.05460000     20.45010000     -0.00409082      0.02646670     -0.05084970       8
H              19.19430000     12.15740000     18.88440000      0.00017456     -0.02905200      0.03732910       1
H              21.56010000     11.58400000     20.31610000      0.00150232     -0.00800869      0.00513847       1
O               1.33982000     13.43290000     19.51950000     -0.00105405      0.01717920      0.05878540       8
H               2.66281000     13.10900000     18.33540000      0.01785930      0.00177146     -0.00738715       1
H               2.06063000     13.80990000     21.30130000     -0.00264063     -0.01197920     -0.04091540       1
O               0.84377300     16.45620000     13.37510000     -0.06208960      0.00157477      0.00198839       8
H               1.74142000     17.14850000     12.05910000      0.03109060      0.01119870     -0.03129730       1
H               1.94893000     15.68130000     14.52130000      0.03526160     -0.01018510      0.02297290       1
O               5.98026000      7.52029000     11.66660000     -0.00299171     -0.01122040     -0.05112670       8
H               4.39762000      7.65187000     12.54500000     -0.00884541      0.00681540      0.01817920       1
H               5.34318000      7.11085000      9.87454000      0.01962240      0.00761181      0.03637600       1
O               6.42120000      8.63506000      0.38540900      0.04937480     -0.00782894      0.01737200       8
H               8.10267000      9.41110000      0.49684600     -0.02325650      0.01963550     -0.01246360       1
H               7.18064000      7.03974000      1.00975000     -0.02731730     -0.00619699     -0.00109081       1
O               6.79936000     13.26270000      5.10258000     -0.04533610     -0.03968770     -0.02371310       8
H               5.49906000     11.86200000      5.84029000      0.03449180      0.04533250     -0.01936600       1
H               6.05884000     13.44890000      3.25812000      0.02658610      0.00323169      0.05700590       1
O               6.17572000      2.22559000     18.84920000     -0.08264800     -0.07459710      0.07944980       8
H               4.80590000      0.72846700     18.55330000      0.05799150      0.04631620      0.01462150       1
H               6.61873000      2.67783000     17.29860000      0.03105250      0.02514280     -0.09141350       1
O              16.57580000      2.72772000     10.47290000      0.04206750     -0.11364500     -0.06290840       8
H              16.18770000      3.97938000     11.48160000     -0.02800320      0.09027570      0.08123490       1
H              17.45200000      1.35723000     11.37560000     -0.00926225      0.02032640     -0.00681121       1
O              21.99650000     21.49890000     17.23900000      0.06069190      0.18507900     -0.05662550       8
H              21.47340000      0.50328400     18.39120000      0.00372831     -0.01892710     -0.02513140       1
H              21.54160000     20.12130000     17.89410000     -0.08606990     -0.17102400      0.07014470       1
O              17.91640000     13.48060000     16.58350000      0.03748900     -0.11396800     -0.09285340       8
H              18.78920000     13.09600000     14.71480000     -0.02026400      0.00868136      0.06936940       1
H              17.95290000     15.14520000     16.80680000      0.00068364      0.10155400      0.01187140       1
O              13.98330000     19.52430000     20.91990000     -0.01670850     -0.01242300     -0.10385000       8
H              12.34880000     20.28410000     21.13660000     -0.02512350      0.00131157     -0.00408540       1
H              14.56820000     19.85050000     -0.01707800      0.04874630      0.01363290      0.10916700       1
O              22.11210000     18.27850000      7.01589000      0.01410730      0.01146870      0.00210700       8
H              20.78990000     17.59640000      8.00704000     -0.02900630     -0.00176076      0.02299900       1
H              22.23690000     16.99460000      5.75756000      0.00920991     -0.02743820     -0.01889690       1
O               3.09135000     10.18360000      6.47923000      0.12390800      0.02465740      0.02760530       8
H               2.74205000      9.16139000      5.18085000     -0.02689170     -0.05604570     -0.06905630       1
H               1.69369000     10.68720000      7.22644000     -0.09662920      0.02994210      0.04412940       1
O              13.42600000     17.78100000      7.45408000     -0.04086860     -0.06332520     -0.02149940       8
H              12.33450000     18.11870000      8.89994000      0.01076130      0.01372470      0.00005118       1
H              12.60370000     16.09600000      6.81671000      0.02461770      0.03651020      0.01601710       1
O               3.23677000      6.71846000     19.46540000     -0.05006910      0.06928540      0.03690990       8
H               3.95501000      7.86819000     20.87820000     -0.00052459     -0.03763320     -0.04020100       1
H               4.20782000      5.35171000     19.02640000      0.04434710     -0.03793570      0.00331981       1
O              16.98290000      0.65469500     17.63550000      0.16214500     -0.24478400      0.05082830       8
H              16.02790000      1.83400000     17.53890000     -0.18215600      0.21562400     -0.02429390       1
H              16.24050000     21.94180000     18.95890000      0.01162250      0.02288890     -0.02566610       1
O               3.91951000     22.20510000     13.75790000     -0.09337580     -0.02844040     -0.00907599       8
H               3.23763000     21.54500000     12.10170000      0.03225350      0.01845260      0.01344240       1
H               2.10176000     22.14090000     14.61950000      0.06548810      0.01014740     -0.00580809       1
O              12.24260000      4.43562000     21.76780000      0.00432433      0.04385060      0.02791530       8
H              11.11560000      3.73245000      0.58079100     -0.00138927      0.00093784     -0.00823947       1
H              12.21810000      6.38050000     22.23750000     -0.00058854     -0.04585800     -0.02714290       1
O              15.75100000     18.42870000     14.59720000     -0.06137860      0.00687504      0.05296520       8
H              16.05700000     19.94880000     15.67650000      0.00409813     -0.01731090     -0.02016630       1
H              14.19280000     17.57920000     15.63760000      0.05868450      0.01534690     -0.03224690       1
O               8.32967000      1.25856000      9.08840000      0.00847932      0.00822906      0.02769780       8
H               9.37501000      2.60197000      8.25991000     -0.00372087     -0.01099820      0.02404130       1
H               8.28597000      1.49371000     11.10230000      0.00921114      0.00713128     -0.06311950       1
O               4.67704000     14.28690000     16.03390000      0.04514900      0.05291250      0.04222050       8
H               5.53660000     13.49030000     14.70830000      0.01393470     -0.02779160     -0.03114400       1
H               6.30583000     15.45190000     16.59450000     -0.05608710     -0.02132790     -0.02050780       1
O              12.68050000      3.72762000     16.69550000     -0.10439100      0.02699220      0.03846980       8
H              10.43430000      4.09719000     16.18970000      0.10319800     -0.02211780      0.01919630       1
H              12.54130000      4.22515000     18.65460000     -0.00057250     -0.01750000     -0.05680080       1
O              17.12520000      7.95949000      6.03467000      0.01995430     -0.00410929     -0.05122910       8
H              18.18650000      6.25155000      5.94975000     -0.01547100      0.05619700      0.00643408       1
H              17.17660000      8.96412000      4.05844000      0.00535561     -0.04012960      0.04817310       1
O               6.81807000      0.00480500      4.03175000     -0.01814980     -0.00448553      0.04510180       8
H               5.14427000      0.04759500      3.13185000      0.01825190     -0.00229107      0.02565770       1
H               6.59443000     22.34120000      6.10010000     -0.00015744     -0.00065212     -0.07712070       1
O               1.60152000      7.84826000     14.46610000     -0.01264400     -0.03087290      0.00255754       8
H               1.57532000      7.16279000     16.16280000      0.01382570      0.02187870      0.01072600       1
H               0.77419400      6.35988000     13.68780000      0.00467173      0.01976970     -0.01542380       1
O              13.78510000     11.18060000     17.10110000      0.06411280     -0.01721270     -0.02376850       8
H              15.70680000     11.40710000     16.36000000     -0.07402110      0.00229985      0.03064670       1
H              12.95580000      9.67835000     16.34010000      0.00352582      0.01460030      0.00419050       1
O               3.51567000     20.21370000     19.50710000     -0.04502600     -0.02765720     -0.00592721       8
H               1.57773000     20.57030000     18.82800000      0.06463440     -0.00373420      0.00477414       1
H               3.78733000     18.38400000     19.29520000      0.00105004      0.02546110     -0.00345130       1
O              21.08800000     11.72180000     12.66130000     -0.12701900      0.15762100     -0.05420180       8
H              22.29580000     10.77260000     13.14410000      0.12591000     -0.09994020      0.05675070       1
H              21.72110000     13.57450000     12.46130000     -0.00666929     -0.04750140      0.00748445       1
O              11.35940000     19.66750000     11.63330000      0.01765960     -0.11288800      0.03454230       8
H              11.57730000     21.29150000     11.59330000     -0.00743055      0.14380500     -0.02409400       1
H              12.94190000     19.47920000     12.64840000     -0.01034040     -0.02787200     -0.00438801       1
O              21.35640000     14.24750000      4.09888000     -0.03286580      0.01368370      0.00911876       8
H              19.95510000     15.22470000      3.28672000      0.02128120     -0.02182580     -0.00017366       1
H              20.50540000     13.17450000      5.45563000      0.02399120      0.00922682     -0.01093470       1
O              20.63530000      4.40958000      6.18987000     -0.01214960     -0.04029460     -0.01021790       8
H              21.46590000      4.16481000      7.83165000     -0.00973690      0.00850688     -0.00051398       1
H              20.04040000      2.65195000      5.62934000      0.02047770      0.02207550      0.00617498       1
O               9.43781000     20.95140000     21.93770000     -0.00114942     -0.06787720      0.12218200       8
H               8.82077000     22.10780000     20.91740000     -0.04771690      0.07888170     -0.07047960       1
H               8.32576000     21.05100000      1.17408000      0.04295330     -0.00281579     -0.05177830       1
O              13.05930000      9.35827000     21.73240000      0.04100080      0.01718300     -0.01964490       8
H              14.72760000      8.70614000      0.03672300     -0.02647380      0.02690400     -0.01306760       1
H              13.72590000     10.23170000     20.01860000     -0.02471560     -0.02899720      0.03218250       1
O              17.58640000     17.52230000      9.87246000      0.01315010     -0.06207580     -0.11276700       8
H              16.05880000     16.78860000      8.84254000      0.04240970      0.02918800      0.03014920       1
H              16.88600000     18.11980000     11.27800000     -0.03323120      0.03178030      0.08368440       1
O               8.36858000     17.91090000     16.43540000      0.06689660     -0.00725732     -0.00579770       8
H               8.72492000     19.04010000     14.96070000     -0.01023670     -0.02488670      0.02611510       1
H              10.25180000     17.14170000     16.92490000     -0.06352970      0.02120070     -0.01634880       1
O              11.70100000     12.78750000      6.66350000      0.09140120      0.01946660      0.01676170       8
H              11.95580000     11.37380000      7.76676000      0.01083810     -0.00951422      0.01223320       1
H              10.08760000     12.84250000      6.17707000     -0.09903650     -0.00220453     -0.03388600       1
O              20.62200000     11.16500000      7.69267000     -0.08003230     -0.03820010      0.00519043       8
H              20.11090000     11.22150000      9.47113000      0.02156930      0.01198020     -0.00027497       1
H              18.89110000     10.04020000      7.23951000      0.05690540      0.01566270     -0.00680208       1
O              15.01080000      2.62053000      5.97618000     -0.04722070      0.00573287     -0.13048800       8
H              15.82350000      2.68543000      7.44021000      0.06081940      0.00498186      0.09475010       1
H              15.76920000      3.70669000      4.63204000     -0.00918559     -0.02323630      0.02794570       1
O              13.43610000     14.23290000      1.66756000      0.00176106     -0.04277880      0.04276020       8
H              13.45960000     13.82270000      3.59546000     -0.00884571      0.00525904     -0.05401090       1
H              13.25010000     12.48580000      0.88785300      0.00456320      0.02303800      0.01333870       1
O              15.22910000      6.75729000     13.62120000      0.12730700      0.04182220     -0.00214349       8
H              17.02880000      6.94543000     14.87600000     -0.06415730     -0.00568490     -0.04494970       1
H              14.18640000      6.14148000     14.83690000     -0.05603090     -0.03689220      0.04950960       1
O              20.77990000     21.73570000     11.79820000      0.05098400     -0.07730450      0.00171539       8
H              21.68290000     20.33770000     13.02200000     -0.04793490      0.05373680     -0.04358120       1
H              21.02100000     20.88990000     10.08600000     -0.01068930      0.02469900      0.04340630       1
O               7.03469000     17.00090000      9.35278000      0.10053900      0.02325130     -0.05291770       8
H               8.60288000     18.29250000      9.59552000     -0.06189700     -0.04236870      0.00581745       1
H               7.79148000     16.20760000      7.63012000     -0.04754940      0.01645300      0.05122460       1
O              20.14300000     17.32320000     19.35870000     -0.00437071     -0.04928840      0.06177590       8
H              19.04180000     17.07830000     21.18360000      0.03911120      0.00130417     -0.06824600       1
H              21.30290000     15.71780000     19.42270000     -0.02635220      0.04820010     -0.00466649       1
O              18.86750000      6.82890000     17.42270000     -0.03229370     -0.04152240     -0.06359760       8
H              19.21480000      8.15280000     18.43630000      0.01878380      0.06880590      0.04925650       1
H              19.59650000      5.39140000     18.12600000      0.00917201     -0.02816110      0.00846600       1
O              11.10500000      5.29365000      7.11381000      0.03888540     -0.01434500      0.00988164       8
H              11.74270000      6.74243000      8.15424000     -0.00913721     -0.00693216     -0.00365586       1
H              12.82120000      4.28287000      6.93724000     -0.04912290      0.01913320     -0.00830580       1
O               7.77012000      2.81255000     13.74900000     -0.04336510     -0.02769640     -0.01285980       8
H               6.29588000      1.37858000     13.78710000      0.02974180      0.04229180      0.00478548       1
H               6.97368000      4.18002000     12.73450000      0.00787842     -0.00531538      0.01593870       1
O              10.14650000      8.14624000     16.21770000     -0.06425230      0.02771310     -0.06938590       8
H               9.32798000      7.69813000     14.28750000      0.03145440      0.02926780      0.08642320       1
H               9.34700000      9.86678000     16.73260000      0.01552120     -0.05524380     -0.02280650       1
O               3.47504000     14.72480000      1.76658000     -0.02660890     -0.05384570      0.00823096       8
H               2.05481000     14.27090000      2.93079000      0.01175380      0.01324560     -0.01623460       1
H               3.42708000     16.41460000      1.35434000      0.00044046      0.04261820     -0.00108324       1
O              13.60560000      8.82972000      9.34346000      0.05188560     -0.02392630      0.03601570       8
H              15.02200000      8.28828000      8.05036000     -0.02935700      0.01643220      0.02856230       1
H              14.36260000      8.26456000     11.24230000     -0.02611460      0.01557410     -0.05853180       1
O              21.82400000      2.90648000     20.40140000      0.05818430      0.04355590      0.03304860       8
H               0.13039100      4.74899000     20.37830000     -0.01463970     -0.04786620     -0.00564048       1
H               0.85311200      2.12696000     21.45530000     -0.03877690      0.00912775     -0.01755790       1
O               4.38218000      4.55758000      7.88242000     -0.04435960      0.02165680     -0.02033810       8
H               3.70745000      4.79484000      6.16143000      0.00744232      0.00187345      0.02417340       1
H               5.90712000      3.69099000      7.68624000      0.02841250     -0.02604100      0.00311056       1
O              17.84330000     16.32240000      1.15349000      0.17027400     -0.18616200     -0.08755920       8
H              17.44960000     17.69770000      1.64839000     -0.06590580      0.27361000      0.09804550       1
H              16.38610000     15.52830000      1.26506000     -0.11024700     -0.07782370     -0.00347398       1
O               8.37377000     14.93240000      0.05491400     -0.05860780      0.05350860     -0.10403900       8
H               8.72246000     15.98430000     20.79790000     -0.01470030     -0.03893160      0.07238180       1
H               9.94695000     14.61890000      0.62085300      0.07333260     -0.00966621      0.02917400       1
O              15.45920000     20.32890000      3.60525000     -0.00378072     -0.01111670      0.03608380       8
H              15.06180000     19.40430000      5.23539000     -0.00205853      0.00374642     -0.02833350       1
H              14.78920000     21.94180000      4.14779000      0.00227953      0.00920988     -0.00656409       1
O              20.26360000     21.94530000      4.30002000      0.02977530     -0.04559190      0.02797230       8
H              21.45080000     20.49320000      5.29976000     -0.05410500      0.04938580     -0.02415890       1
H              18.53440000     21.18830000      4.25837000      0.01895640      0.00880897     -0.00346768       1
O               0.15956500      4.38265000     11.16290000      0.18319700      0.20338600     -0.11889300       8
H              21.99190000      3.04899000     11.59660000     -0.10585700     -0.23501400      0.07576670       1
H               2.08720000      3.87192000     10.22350000     -0.07244280      0.02282130      0.03281030       1
O              17.43310000      8.83704000      1.29984000     -0.06651560     -0.10613800      0.08295200       8
H              18.69200000      9.29440000      0.23828600      0.06139680      0.03485820     -0.05224110       1
H              17.50870000      6.74999000      1.50621000      0.00162902      0.05697990     -0.01753100       1
O               3.84636000     20.76610000      8.18287000     -0.00178280     -0.06915990      0.04676040       8
H               4.93412000     19.19090000      9.07053000     -0.02492330      0.05189030     -0.04245050       1
H               2.24380000     19.79130000      7.86602000      0.03047790      0.02048210     -0.00079026       1
O               1.41963000      6.69624000      3.22724000     -0.05346790     -0.00982413      0.03323060       8
H               0.02675800      5.61909000      4.27050000      0.04205520      0.02524190     -0.02771940       1
H               2.75044000      5.67428000      2.67946000      0.01590580     -0.01965210     -0.01366550       1
O               7.93437000     12.55700000     12.34880000      0.01306760     -0.15150700      0.06244860       8
H               7.66603000     13.86520000     11.40710000     -0.02106580      0.10870300     -0.08618810       1
H               7.54622000     10.93270000     11.36820000      0.00499573      0.04202790      0.02611190       1
