192
TotEnergy=-1103.09527000 cutoff=-1.00000000 nneightol=1.20000000 pbc="T T T" Lattice="22.50871000       0.00000000       0.00000000      -0.00000100      22.50871000       0.00000000      -0.00000100      -0.00000100      22.50871000" Properties=species:S:1:pos:R:3:force:R:3:Z:I:1
O               6.07009000      3.95153000     18.54650000     -0.00704781     -0.00847878      0.01235310       8
H               5.74045000      3.96757000     20.35630000      0.01003530     -0.01268510     -0.00501274       1
H               5.03953000      5.38013000     18.09750000     -0.00014430      0.00837424     -0.01577110       1
O              15.42780000     11.66220000     10.95290000      0.00637935     -0.00440960      0.00233272       8
H              14.26010000     12.70020000     10.06330000     -0.00511510      0.00330869     -0.00844660       1
H              14.55900000     11.68830000     12.70180000      0.01556110     -0.01259790     -0.00556524       1
O              20.99890000     11.84020000     12.30130000     -0.00835533      0.00500496      0.00000108       8
H              20.64980000     12.01020000     10.51990000      0.00645448      0.00362435     -0.00665994       1
H              19.74320000     12.90710000     13.07460000     -0.00064749      0.00012964      0.00279989       1
O              10.19190000     16.94980000     15.41320000      0.32673400     -0.01157240     -0.07871660       8
H              10.95410000     18.30610000     14.44640000     -0.01749950     -0.00502550      0.00518273       1
H               8.74329000     17.02910000     15.78780000     -0.30410200      0.02904890      0.05706910       1
O               6.66058000     15.67260000     11.62140000     -0.01004210     -0.00610513      0.00434354       8
H               5.27725000     14.46380000     11.84060000      0.00624698      0.00587890      0.01227900       1
H               6.50982000     16.16710000      9.87221000      0.00005041     -0.00285094     -0.00434565       1
O              16.24310000      5.66468000     13.54870000      0.00559414     -0.00031479     -0.01588610       8
H              16.21150000      4.21700000     12.43980000     -0.00008341      0.00268957      0.00521439       1
H              16.15870000      5.05654000     15.25970000      0.00478735      0.00360834     -0.00235625       1
O              10.60310000     12.63650000      9.31951000      0.00119543      0.00995064      0.00374889       8
H              11.11530000     14.36540000      9.10037000     -0.00567256     -0.00152812     -0.00149112       1
H               9.73580000     12.64670000     10.93020000      0.00304780      0.00276685      0.00033658       1
O               3.25458000     12.57910000     14.02380000      0.00258057      0.00247376     -0.01113680       8
H               1.74392000     12.31910000     13.03800000     -0.00424537     -0.00064033      0.00151420       1
H               4.36809000     11.15930000     13.69920000      0.00417012      0.00242628      0.00481146       1
O              18.69620000     14.50860000     20.29080000      0.02266380     -0.03489710      0.04177370       8
H              18.13380000     16.24000000     20.19590000      0.00889401     -0.00366239     -0.02098800       1
H              18.61830000     13.56080000     18.80250000     -0.00982539     -0.00744936     -0.02012780       1
O               4.49579000     17.82170000      2.52002000     -0.00313191     -0.02575670     -0.00779061       8
H               4.53677000     19.54570000      3.06697000     -0.00159300      0.01686680      0.00463419       1
H               2.75735000     17.27770000      2.82623000      0.00696151     -0.00188142     -0.00492560       1
O              18.26290000      3.22853000      8.97002000      0.00769376      0.03222210     -0.00698316       8
H              17.84790000      1.57879000      8.35815000     -0.00930618     -0.03250880     -0.00683931       1
H              18.48690000      4.24342000      7.46147000     -0.00402494     -0.00859225      0.00871891       1
O              14.34500000     10.08880000     19.67720000     -0.01236650      0.01740020      0.00670365       8
H              15.91310000      8.94859000     19.39240000      0.01857160     -0.00463213      0.00154718       1
H              12.76120000      9.23305000     19.84820000     -0.00190272     -0.00793823      0.00474610       1
O              13.75080000     13.72030000      0.90191300      0.00922223      0.00235787     -0.00336328       8
H              12.59500000     14.98700000      0.31121700      0.00151782      0.00209364      0.00017917       1
H              14.42370000     13.03470000     -0.69722400     -0.00417710     -0.00965007      0.01041090       1
O               7.91091000     19.87280000     22.00770000      0.00806960     -0.01406300     -0.00060475       8
H               6.40112000     19.01470000     22.62610000     -0.00356724      0.00744449      0.00496416       1
H               8.87562000     18.35390000     21.35700000      0.00616401      0.01665050      0.00190135       1
O              10.00030000     10.71820000      4.01933000      0.00232807     -0.00269734      0.00184554       8
H              10.76220000     12.33590000      4.19178000      0.00833571      0.00247592     -0.00032245       1
H               8.24548000     11.04800000      3.47216000     -0.00221687     -0.00614077      0.00301039       1
O               9.92784000      8.59116000     21.69110000     -0.00046903      0.00820784     -0.00123002       8
H              10.73440000      9.29043000     23.15670000      0.00466858     -0.00170636      0.00815026       1
H               8.75693000      9.96045000     21.35440000     -0.00273517     -0.00039962     -0.01043970       1
O              21.80900000      7.74309000     14.71910000     -0.00877201     -0.00345692     -0.01139190       8
H              21.43760000      9.14130000     13.56690000     -0.00095168      0.01804780      0.00817597       1
H              21.98580000      6.31156000     13.60980000      0.00678088     -0.02088860      0.00718833       1
O              16.93620000      8.81928000      6.93060000      0.01216520      0.02279630      0.02126440       8
H              16.30740000      9.90884000      8.60587000      0.00776218     -0.00538720     -0.01359450       1
H              15.53480000      7.72324000      6.19700000     -0.02399680     -0.00383206     -0.00157303       1
O               2.71182000     20.59680000      8.77357000     -0.00086125      0.00099028      0.00073924       8
H               3.23266000     22.31260000      8.40941000      0.00375595     -0.00299903     -0.00187664       1
H               3.96710000     19.37910000      8.28510000      0.00143881      0.00970366     -0.00009924       1
O              22.43180000     15.37620000      3.06890000      0.00328354      0.00374501     -0.00456517       8
H              19.37900000     12.14680000      4.71992000      0.00324119      0.01880110     -0.00150015       1
H              22.76700000     14.77790000      1.39502000      0.00155761     -0.00698019     -0.00437578       1
O              21.71740000      7.37863000      8.49006000     -0.00683033      0.01445910      0.03779800       8
H              20.27030000      8.18941000      7.70772000      0.00894189     -0.01631750     -0.00102422       1
H              21.32450000      5.80930000      9.28675000     -0.00497709     -0.02215730     -0.01052910       1
O              13.96830000      4.56288000      0.90617400      0.01132150     -0.01490100      0.01335320       8
H              15.82880000      4.55416000      0.51195900     -0.01074630      0.00018479      0.00464721       1
H              13.12120000      5.57364000     -0.29805700     -0.00643944      0.00702430     -0.01677210       1
O               5.38024000     10.87540000      2.70363000     -0.00784821      0.00547002      0.00023400       8
H               4.54604000     11.95110000      1.52422000     -0.00323058     -0.00083464     -0.00594176       1
H               4.08760000     10.57120000      3.99289000      0.00715491     -0.00423768      0.00034511       1
O               9.84992000      1.14483000     10.69780000      0.00115157      0.00861544      0.00877331       8
H               9.38415000      2.87527000     11.02140000      0.00202997      0.00020389     -0.00359269       1
H              11.45890000      0.84805500     11.61990000      0.00129123      0.00137617      0.00517381       1
O               6.69056000     12.00530000     19.69090000      0.00818936      0.01186590      0.00603640       8
H               6.05814000     10.72110000     18.56110000     -0.00782761      0.01001390     -0.00196102       1
H               5.28533000     12.89120000     20.45760000      0.00204434     -0.01422720     -0.01346080       1
O              18.40400000      8.12125000     19.34170000      0.00325377      0.00385399     -0.00122237       8
H              20.22700000      6.95305000     11.63400000     -0.00131868      0.00718612      0.00047663       1
H              18.60130000      6.40817000     18.79370000      0.00468386      0.00036911     -0.00060119       1
O              17.32550000     18.75590000     20.22960000     -0.00787848      0.03186950      0.00236373       8
H              15.66800000     18.32420000     20.66430000     -0.03030940     -0.01022600      0.01766070       1
H              18.96440000     20.79980000     22.09830000     -0.00037809     -0.00263919      0.00575757       1
O               1.52477000     12.68490000     21.58730000     -0.00199434     -0.00024221     -0.00181996       8
H               0.07125200     11.83970000     20.89230000     -0.00156186     -0.00961568      0.00455408       1
H               1.46995000     14.25730000     20.68640000      0.00420705      0.00905771     -0.01015440       1
O               6.19089000     17.27320000      7.01223000     -0.00005674     -0.00934078     -0.00076701       8
H               5.41026000     16.66030000      5.46600000     -0.00102540      0.00312970     -0.00504537       1
H               7.83825000     17.77050000      6.49766000      0.00890549     -0.01000120     -0.00189331       1
O              21.29710000     13.43670000      7.46136000     -0.00771642      0.00384303      0.01162230       8
H              21.24550000     15.20380000      8.01940000     -0.00678594     -0.00070662     -0.00070649       1
H              22.96460000     13.29290000      6.77255000      0.00210335     -0.00704761     -0.00508353       1
O              10.73990000     16.42300000     19.99310000      0.00189163     -0.00565998      0.00294120       8
H              11.03180000     17.04800000     18.23300000      0.00123605     -0.00674888      0.00610659       1
H              10.07410000     14.75820000     19.60780000      0.00054640      0.00053774      0.00383673       1
O               7.62411000      8.64309000      8.63426000      0.00778435      0.00254765     -0.00968157       8
H               8.75252000      9.99735000      8.13230000     -0.00094609     -0.00097746     -0.00195662       1
H               7.54303000      8.73299000     10.45860000     -0.00399222     -0.00717705      0.01347950       1
O               3.39455000      3.04925000      8.05780000     -0.09033890     -0.03401240      0.09146930       8
H               3.88921000      3.21740000      9.85851000     -0.00094353      0.00204084     -0.02688620       1
H               4.59422000      3.57041000      7.02024000      0.08139970      0.03744910     -0.05170680       1
O              15.08080000      0.36059700     16.96790000     -0.01732360     -0.01054600      0.00998374       8
H              13.63640000      1.47924000     17.30990000     -0.00662790     -0.00267085      0.00006912       1
H              16.49570000      1.50314000     17.18300000      0.01834920      0.00290047     -0.00585448       1
O              10.18150000      0.27985100      2.70697000      0.00117192      0.00276870      0.00243944       8
H               9.09078000     -0.72490500      1.45161000      0.00528143     -0.00548798     -0.00843550       1
H              11.49540000      1.40128000      2.00890000     -0.00529505     -0.00365372      0.00269839       1
O               7.55348000      4.61478000      5.94734000      0.01145910      0.00744368     -0.00092667       8
H               9.17511000      3.82411000      5.94178000      0.00351875      0.00084299      0.00473165       1
H               7.79269000      6.24291000      6.87576000     -0.00066542     -0.01152530      0.00361436       1
O              18.94710000      4.05868000      0.77903900     -0.00311534      0.01090950      0.01212640       8
H              19.82220000      4.72995000      2.25443000     -0.00298092      0.00387221     -0.01212260       1
H              19.46660000      2.32282000      0.51065900      0.00008541     -0.00353895      0.00720177       1
O               1.87869000      5.92970000     21.64970000     -0.00943753      0.00328806      0.00909624       8
H               0.65179600      6.73373000     22.75570000     -0.00112398      0.00747647     -0.00405345       1
H               1.73990000      4.21754000     22.20550000      0.00524978     -0.00439041      0.00026573       1
O              17.06210000     20.91130000      7.93115000     -0.01723910      0.01926950      0.00396579       8
H              16.42760000     20.46500000      6.31706000      0.00534999      0.00100930     -0.00628198       1
H              18.90360000     20.05800000      8.62076000      0.01342860     -0.00289521      0.00804765       1
O               1.49008000     16.13120000     17.62430000      0.00830423      0.00215159     -0.01082860       8
H               0.83113000     14.54770000     17.06260000     -0.00871740     -0.00671600      0.00080837       1
H               2.73076000     16.31160000     16.29620000      0.00545635      0.00577408      0.00986645       1
O               0.81992600      0.68602000     19.36610000      0.03905050     -0.00260330      0.00594434       8
H               1.18959000      2.49917000     19.07110000      0.00311688     -0.03128020      0.00635067       1
H               2.73679000     -0.61521300     19.74200000     -0.04071620      0.04765330     -0.03317750       1
O              11.42300000      3.74267000     17.48900000     -0.00085408      0.00430673     -0.00504710       8
H               9.74221000      3.64499000     18.17580000     -0.00151159      0.00331008     -0.00092334       1
H              11.29300000      4.95552000     16.03330000      0.00186864      0.00264739      0.00285694       1
O              13.08610000      6.55971000      5.44709000     -0.00222745      0.00827240      0.00412424       8
H              13.39730000      5.82479000      3.78391000      0.00270289     -0.00540795     -0.01141830       1
H              11.83930000      7.89550000      5.11899000      0.00607838     -0.00170990      0.00298370       1
O              14.78190000     16.29750000      6.24244000     -0.40148500     -0.17031100     -0.09413140       8
H              16.08720000     16.84740000      6.52989000      0.35941000      0.17356400      0.08533960       1
H              13.37280000     17.44020000      5.80129000      0.03911800     -0.01086950      0.01252960       1
O              21.42090000      8.41771000      3.76534000     -0.01924730      0.00390901      0.00293331       8
H              18.21780000      9.32223000      5.57498000     -0.00730371     -0.01297900      0.01233370       1
H              23.12250000      8.47123000      4.39886000     -0.00718086      0.00006987     -0.00096651       1
O               4.74841000     21.07480000     18.25940000      0.01075130      0.00251886     -0.01608900       8
H               4.96882000     22.39450000     16.99510000     -0.01255050     -0.01002040      0.01031660       1
H               6.47218000     20.89280000     18.79830000      0.00099093     -0.00541992      0.01832460       1
O              19.05280000      2.96939000     16.85170000     -0.03838540      0.01984140      0.04401170       8
H              19.80080000      2.95576000     15.18600000      0.01051400     -0.00724553     -0.00399169       1
H              20.05770000      2.07031000     18.00220000      0.01789770     -0.01109140      0.00593236       1
O              20.32900000     21.88170000     22.67650000     -0.02378040      0.00071357     -0.02008960       8
H              21.16910000     22.33230000     21.03840000      0.01990720      0.00156005      0.01179990       1
H              21.35400000     21.05890000     25.16120000      0.00194227      0.00022574      0.00249605       1
O               7.20659000      9.08441000     13.73580000     -0.00772310      0.01158360     -0.01071650       8
H               6.40984000      8.24234000     15.10010000     -0.00769938     -0.00603450      0.00591019       1
H               9.02815000      8.45929000     13.77290000      0.00952675     -0.00220505     -0.00574680       1
O              13.66340000     21.71160000     12.54350000      0.00610498     -0.01241120     -0.00513505       8
H              14.80810000     21.15430000     11.22840000      0.00499738      0.00130741      0.00170628       1
H              14.60730000     22.06510000     14.13720000     -0.00300800     -0.00039282      0.00006951       1
O              18.23290000     12.37830000      3.25025000      0.00849886     -0.03233240      0.02712620       8
H              19.18680000     12.89380000      1.85944000      0.01507810      0.01400310     -0.04074990       1
H              16.57320000     13.02620000      3.37442000     -0.03100420      0.02226740     -0.00206917       1
O               3.57646000      8.06461000     17.14960000     -0.00296747      0.00209023      0.01139490       8
H               3.06287000      8.03267000     18.90290000     -0.00637368     -0.00291635      0.00087405       1
H               1.96564000      8.09708000     16.21950000      0.00307695      0.00000425      0.00067857       1
O               3.19133000      9.54909000      6.78983000      0.00467568      0.00308045      0.00694976       8
H               4.81717000      8.84264000      7.29886000      0.00033668      0.01084430      0.00359681       1
H               1.97679000      8.68585000      7.83416000     -0.00298713      0.00083080     -0.00463602       1
O               7.00429000      4.95663000      1.01242000     -0.00240005      0.00749433     -0.00028626       8
H               6.93028000      6.50560000      0.05276100      0.00432759     -0.00663822     -0.00140096       1
H               7.56682000      5.66279000      2.59478000     -0.00591519     -0.01228700      0.00343289       1
O              11.36110000      7.26494000     13.61800000     -0.00046174     -0.01564970      0.01134560       8
H              13.05480000      6.89628000     13.09060000     -0.00215567      0.00458354     -0.00210188       1
H              12.41920000     10.07470000     15.00330000     -0.01378200     -0.00701785     -0.01719190       1
O              20.72710000     19.14030000      9.75373000     -0.00020136     -0.01812980      0.00294813       8
H              20.37020000     18.58690000     12.75650000     -0.00879773      0.00157383     -0.01305560       1
H              22.39570000     19.83580000     10.09280000     -0.01304280      0.00113411     -0.01761060       1
O              22.29030000     20.04850000      3.90413000      0.00785311      0.00798264      0.01144790       8
H              22.06860000     17.19610000      3.00450000     -0.00657578     -0.00114369      0.00726183       1
H              21.93700000     20.44340000      5.64355000     -0.00307717     -0.00290175      0.00272508       1
O              21.31630000      2.70541000     13.11970000      0.00574286      0.02020300     -0.01432620       8
H              23.04850000      2.20215000     13.33420000      0.01570500     -0.01053220     -0.00690900       1
H              20.58890000      2.37382000     11.52990000     -0.00370985     -0.01163590     -0.02283480       1
O              20.02690000     18.21620000     14.53480000      0.00061961     -0.00489102      0.01288280       8
H              16.94650000     19.75250000     18.77930000      0.00793582      0.01346660     -0.02423240       1
H              21.67140000     18.00110000     15.26230000     -0.00445993      0.00109339      0.00697078       1
O              13.04870000     11.74730000     15.46800000     -0.00480577      0.00158862     -0.02254200       8
H              13.57900000     11.15850000     17.14650000      0.01937930      0.01331020      0.01238780       1
H               8.33915000     20.54750000      6.94375000     -0.06284550      0.01418720      0.01604160       1
O              10.05480000     20.62120000      7.02639000      0.09201490      0.00808659      0.02100810       8
H              10.34990000     21.97390000      4.47828000      0.00759785      0.00503202     -0.00359238       1
H              10.67790000     21.41700000      8.81332000     -0.03725000     -0.00587102     -0.05834900       1
O               3.61465000      2.16484000     13.42100000      0.00599128     -0.00212555      0.00042878       8
H               4.47666000      0.52494500     13.27160000     -0.00258702     -0.00598937     -0.00926380       1
H               4.30046000      2.87335000     14.93100000      0.00266810      0.01098700      0.00496274       1
O               4.64768000      0.16671300      3.44206000      0.00199354     -0.00213675     -0.00027431       8
H               2.94103000      0.29709600      4.07705000      0.00623459      0.00257277      0.00114674       1
H               5.65237000      1.56171000      4.02303000     -0.00660707      0.00367914     -0.00364135       1
O               6.26362000     20.50710000     12.89460000     -0.02591620     -0.03669570      0.01876750       8
H               6.27762000     18.61080000     12.68070000     -0.00751490      0.02079150      0.00055384       1
H               7.84502000     21.03040000     12.36790000      0.03532450      0.02130530     -0.01397810       1
