192
TotEnergy=-1102.37100000 cutoff=-1.00000000 nneightol=1.20000000 pbc="T T T" Lattice="25.30942000       0.00000000       0.00000000      -0.00000100      25.30942000       0.00000000      -0.00000100      -0.00000100      25.30942000" Properties=species:S:1:pos:R:3:force:R:3:Z:I:1
O              15.84180000     24.82010000      2.51613000     -0.02820080      0.02934820     -0.01939710       8
H              14.35910000     24.55140000      1.26198000      0.03574960      0.01448450      0.02865230       1
H              16.08120000     26.68220000      2.87163000     -0.00620405     -0.03568540     -0.02139440       1
O              17.71860000     19.65650000     12.35710000     -0.06156520      0.00874470     -0.01124980       8
H              18.55750000     18.80630000     10.89890000     -0.02654140      0.01074010      0.01635610       1
H              15.72650000     20.12650000     12.05020000      0.09011370     -0.02089220      0.00122448       1
O               4.09367000     11.35460000     16.81840000     -0.03870970     -0.03196010     -0.14855400       8
H               5.55869000     11.88890000     15.73250000     -0.02762590     -0.01654120     -0.01127040       1
H               4.93276000     11.91720000     18.06980000      0.06598510      0.04971780      0.15817500       1
O               1.83846000     13.38810000      9.32137000     -0.03515210      0.08121170     -0.13507700       8
H               2.07928000     11.86650000      9.77479000      0.02689430     -0.17335200      0.03129720       1
H               2.01136000     14.09560000     10.78640000      0.00662398      0.08146910      0.11943000       1
O              18.86840000      5.49296000      7.65257000     -0.06783590      0.03455610      0.00181736       8
H              20.36510000      5.13120000      6.80475000      0.02496120      0.00030588     -0.02328950       1
H              17.73890000      6.55489000      6.52940000      0.03455440     -0.03311390      0.01537500       1
O              -0.31282500     21.25780000      9.00120000      0.04482490      0.04662540      0.01544250       8
H               0.42825900     22.04210000     10.67800000     -0.01598460     -0.02064370     -0.05062870       1
H               0.67867600     22.07340000      7.54625000     -0.02217030     -0.02443080      0.04158160       1
O               8.34509000      3.37112000     17.89230000      0.04211900     -0.05320250     -0.05291060       8
H               8.43109000      5.07396000     18.17520000     -0.00489391      0.05443220      0.01625360       1
H               9.67709000      3.27683000     16.48730000     -0.02852440     -0.00624407      0.03826900       1
O               3.03084000     16.75970000      5.73093000      0.00715033     -0.02785760     -0.02542130       8
H               3.48778000     15.45760000      4.43105000     -0.01038390      0.02883630      0.02728430       1
H               2.41566000     15.73100000      7.13737000      0.00881622      0.00878352     -0.01448090       1
O              21.06530000     17.27470000     20.70080000     -0.09631630     -0.02152230      0.02988680       8
H              19.93580000     15.65400000     20.83380000      0.04441230      0.04604580     -0.01101510       1
H              19.65600000     18.40990000     21.49090000      0.04619930     -0.02497120     -0.02146890       1
O              20.89550000      2.41076000     13.98650000     -0.02048440     -0.04104210      0.12410700       8
H              20.90150000      1.41617000     16.17740000      0.00523398      0.03684860     -0.10235000       1
H              19.90200000      3.81942000     14.66960000      0.01275330     -0.00028482     -0.01696920       1
O              10.77090000      3.86461000      6.80426000      0.08122500      0.20531500      0.23710800       8
H              10.39430000      2.67082000      5.95382000     -0.07673400     -0.23455200     -0.15995200       1
H              10.98720000      3.16837000      8.64982000     -0.00819062      0.02219000     -0.06968570       1
O              16.27750000     14.62060000     24.92960000      0.04671530      0.02308780     -0.01923970       8
H              16.89760000     16.44580000     24.63010000     -0.01687390     -0.04701120      0.01336320       1
H              17.93590000     13.69860000     24.95320000     -0.02991350      0.02131510      0.01037930       1
O              18.34370000     19.62380000     -0.40380800     -0.03753720      0.01147280     -0.00976150       8
H              17.38970000     21.03160000      0.30908000      0.00496127     -0.00910581     -0.00583589       1
H              20.02850000     20.02300000     -0.08973100      0.03206760     -0.00004007      0.01579190       1
O              11.95760000     18.33010000      2.64651000     -0.22678300      0.16527500      0.00191656       8
H              11.24970000     18.61880000      4.43297000      0.00692807      0.00380798     -0.05480990       1
H              13.13890000     17.41750000      2.96810000      0.21637100     -0.16497600      0.04130040       1
O               4.45740000      1.29006000      1.91314000      0.03584160     -0.02559370     -0.05503320       8
H               4.63347000     -0.45423300      2.50169000     -0.00889641      0.00921367      0.00207675       1
H               5.43680000      1.16574000      0.21283400     -0.02436870      0.00737400      0.05481470       1
O               4.21400000     22.05030000      4.79496000      0.04244250      0.10624000      0.04351500       8
H               4.24774000     20.37020000      4.63809000     -0.00073086     -0.09193390     -0.00420285       1
H               5.72181000     22.47420000      5.94662000     -0.04190510     -0.01473090     -0.03353140       1
O              17.88840000      4.91756000      1.25580000     -0.21680300     -0.04693480     -0.01286420       8
H              19.40280000      5.38313000      1.34473000      0.17168100      0.07019990      0.00545422       1
H              16.63240000      6.26681000      0.65638900      0.05082310     -0.02957120      0.01517720       1
O              21.50460000      7.30817000     16.21750000      0.07839410      0.10314700      0.00014246       8
H              21.91880000      9.49481000     15.85890000     -0.02818090     -0.07587830      0.00589484       1
H              23.35630000      7.24008000     16.85460000     -0.05542540     -0.02030080     -0.00762049       1
O              24.20980000      4.97931000     10.60860000      0.11045600     -0.05893060     -0.13679300       8
H              23.77880000      5.97298000     11.77770000     -0.06311260      0.09718630      0.13072300       1
H              23.16970000      3.66526000     10.24400000     -0.04202020     -0.03709250      0.00349853       1
O               6.08049000     18.85730000     16.91380000      0.02024770     -0.00163529     -0.05810360       8
H               7.82593000     19.42090000     17.04030000     -0.02367120     -0.00305779      0.01242580       1
H               5.39494000     18.26810000     18.39150000     -0.00014672     -0.00899286      0.05094320       1
O              12.81200000     13.18940000      7.18371000      0.11671300      0.01987000     -0.06004230       8
H              11.29150000     13.30160000      7.78382000     -0.13063800      0.00385266      0.05469330       1
H              13.23950000     15.02510000      6.96847000      0.01092780     -0.03107970      0.00175241       1
O              21.80550000     17.19720000      9.29375000     -0.16567300      0.05151170     -0.07487280       8
H              22.43500000     15.72980000      9.37985000      0.06723850     -0.15599200      0.01135550       1
H              22.76610000     18.27180000     10.02690000      0.09478850      0.10428700      0.05636920       1
O              22.75930000     19.86970000      2.87210000      0.00087941      0.02560480      0.05906960       8
H              22.94690000     19.11010000      4.70570000     -0.00712252      0.04102680     -0.05666530       1
H              22.59020000     21.80880000      2.89228000      0.00864171     -0.05347490      0.01040430       1
O               3.92969000      7.73170000      9.80200000      0.00975657      0.02102020     -0.04572030       8
H               2.51007000      6.71360000      9.21069000      0.00813641      0.00402108      0.00792189       1
H               4.68832000      8.54358000      8.21149000     -0.01654320     -0.02173240      0.03498650       1
O              15.43580000      8.82438000     24.40310000      0.10250700     -0.20801100      0.04116680       8
H              13.91480000      9.14395000     24.77280000     -0.18181600      0.00647049      0.05817230       1
H              15.61590000     10.23430000     23.77260000      0.06744690      0.21087000     -0.09997350       1
O              13.09260000     24.35560000     13.08620000     -0.00925807     -0.03562260     -0.10212700       8
H              13.90800000     25.12750000     11.54290000     -0.01844750     -0.02775230      0.03247240       1
H              13.61810000     25.38000000     14.31180000      0.02770460      0.05714090      0.07193580       1
O               1.39642000     10.85270000      0.27186900     -0.00289037      0.03492070     -0.03798440       8
H               1.35013000     11.81770000     -1.51845000     -0.00680857     -0.01926510      0.08723980       1
H               1.35819000     11.90370000      1.88467000     -0.00067710     -0.00763889     -0.05446690       1
O               7.20011000     23.62650000     15.70700000     -0.03449360      0.03483660      0.01011720       8
H               6.15468000     25.07960000     16.43840000      0.04337930     -0.03758460     -0.01612910       1
H               8.93325000     23.72600000     16.20440000     -0.00144873      0.01441060      0.00214445       1
O               6.93204000     16.99460000     22.89390000     -0.00814428     -0.00609893      0.05473000       8
H               5.16393000     16.49640000     23.20310000      0.01883350      0.01137810     -0.00210207       1
H               7.57006000     17.26830000     24.70670000     -0.01241140     -0.00592032     -0.05140310       1
O               8.72071000      1.16560000     22.68560000     -0.20720600     -0.28718600     -0.12571600       8
H               9.53013000      2.38508000     22.96720000      0.18430400      0.26977100      0.05962270       1
H               8.41472000      1.00906000     20.70230000      0.01667020      0.01911530      0.07293570       1
O              23.98350000      6.63615000     20.86300000      0.11887800     -0.09862420     -0.04549020       8
H              23.43670000      7.87290000     21.76510000     -0.06792560      0.10805100      0.07874440       1
H              25.77780000      6.60619000     21.63480000     -0.04414660     -0.01525520     -0.03179860       1
O              23.88520000     -0.20309900      0.61926600      0.00656380      0.03931720     -0.02532960       8
H              25.09410000      0.19374400     -0.82007600     -0.02782000     -0.00559841      0.04436500       1
H              23.13390000      1.45817000      1.16879000      0.02010080     -0.03262070     -0.01540520       1
O              12.50950000     22.92280000     23.88780000     -0.09035680     -0.06206430      0.03622650       8
H              10.46030000     23.20030000     23.33910000      0.09290400     -0.00284946      0.02825110       1
H              12.35720000     21.27530000     25.17740000      0.00346395      0.06306970     -0.05319790       1
O              21.36740000     14.70740000      1.40297000      0.03465440      0.00496697      0.06339470       8
H              21.96340000     16.38910000      2.01793000     -0.01291090     -0.01847310     -0.02892110       1
H              22.13870000     13.76070000      2.89307000     -0.01925910      0.01172860     -0.04267710       1
O              20.62470000     24.47580000     20.59200000      0.06411880     -0.03223340      0.04808150       8
H              20.59800000     22.80490000     21.65360000     -0.00230284      0.05797030     -0.03238090       1
H              22.37560000     25.22740000     21.16130000     -0.06306070     -0.02317900     -0.01663720       1
O              11.28250000      5.17473000      1.60047000      0.00221381      0.06236010     -0.08319740       8
H              11.48120000      7.11682000      1.44538000     -0.01207650     -0.06289410      0.02761080       1
H              11.41850000      4.57862000      3.21047000      0.00806587      0.00358282      0.05130140       1
O              12.46490000     11.32970000     16.73920000      0.02685040      0.30733900     -0.09557610       8
H              12.43250000      9.85209000     16.98310000     -0.00928675     -0.31226000      0.06404780       1
H              13.20810000     11.37600000     14.99710000     -0.01708230      0.00229870      0.03372570       1
O              16.12230000     16.77680000      7.01359000     -0.00215630      0.06082170     -0.00798884       8
H              17.05610000     18.15680000      6.15183000     -0.03158490      0.01251540      0.01628050       1
H              17.26650000     15.61760000      6.46578000      0.03216460     -0.06657170     -0.00943926       1
O               4.22570000      4.54180000     21.10310000     -0.09614630      0.02163790      0.24313500       8
H               5.10346000      3.71592000     22.75020000     -0.03000950      0.03618860     -0.07433780       1
H               5.07554000      4.14786000     19.84820000      0.11616700     -0.05792700     -0.17106000       1
O               1.23573000     22.21780000     14.17810000     -0.02010280      0.09187390      0.01380650       8
H               2.01499000     24.10530000     14.59680000     -0.03222170     -0.08584090     -0.02057580       1
H              -0.73729300     22.52550000     14.46690000      0.05618640     -0.00982596      0.00060887       1
O              18.00640000      0.36336100     10.03380000      0.03154660     -0.02353050      0.04632150       8
H              18.90340000      0.12637300     11.72870000     -0.01366190      0.00736782     -0.04166420       1
H              16.82760000      1.59356000     10.52620000     -0.00909574      0.02272940     -0.00450305       1
O               5.45482000      9.85210000     21.96010000     -0.01698660      0.00693697     -0.01247480       8
H               4.33301000     10.43410000     23.32060000      0.01050940     -0.01992870     -0.01543360       1
H               4.50732000      8.96802000     20.60290000      0.01022320      0.01120740      0.03299790       1
O              20.60320000      9.89112000      9.77470000     -0.02757470     -0.01166480      0.01376060       8
H              19.19650000      8.50389000      9.54505000      0.05521720      0.03782440      0.01648380       1
H              20.97950000     10.38210000     11.56110000     -0.01589390     -0.01597380     -0.03109990       1
O               8.00257000     15.15840000      9.31534000     -0.03723430     -0.07031680      0.04129680       8
H               6.62419000     13.32810000      9.30103000      0.06500530      0.09134760      0.00637470       1
H               8.64427000     15.42430000     11.14660000     -0.02619400     -0.02149640     -0.04821660       1
O              13.32210000      4.23923000     15.78500000      0.00357928      0.05920930     -0.08199020       8
H              13.28210000      5.44021000     13.98160000      0.00906881     -0.05266620      0.08570660       1
H              14.62350000      5.07306000     16.85200000     -0.01065590     -0.00412973     -0.00549298       1
O              20.80470000      9.51560000     24.85920000      0.03620830     -0.04322090      0.11492200       8
H              20.52000000     10.15170000     23.36160000     -0.01407000      0.05182890     -0.10006100       1
H              22.33130000     10.24900000     25.63830000     -0.02515470     -0.00158873     -0.02268340       1
O               3.71671000      6.26366000      2.37032000     -0.03463410     -0.02029050     -0.03464320       8
H               3.40642000      4.69310000      3.36290000      0.00936948      0.02136200     -0.02859580       1
H               2.72859000      5.99318000      0.67259200      0.03327200      0.00805739      0.06615140       1
O               4.48564000      6.07696000     15.31320000     -0.09521160      0.02324190      0.29682100       8
H               3.63029000      7.65097000     15.68760000      0.01102760     -0.00758755     -0.01189180       1
H               4.96033000      5.95584000     13.88830000      0.08442180     -0.01370280     -0.28535700       1
O               8.36723000     13.98150000     14.96310000     -0.20690100     -0.01299380     -0.17587200       8
H               7.50561000     15.37280000     15.41770000     -0.03027940      0.06894850      0.02930560       1
H               9.65580000     13.69180000     15.71970000      0.23210900     -0.04948770      0.14550400       1
O              16.60580000      6.89673000     19.10710000      0.02357130     -0.00244585      0.04007860       8
H              16.58350000      6.62648000     20.99850000     -0.00677532      0.00468714     -0.03970130       1
H              18.42620000      7.13244000     18.77880000     -0.01581150     -0.00433704     -0.00662375       1
O               0.91742300     17.27690000     25.68720000      0.02088230     -0.01537700      0.01508570       8
H               0.80211800     18.90490000     26.68120000     -0.00923229     -0.03166260     -0.04927610       1
H               0.66694600     16.94390000     23.87160000     -0.00353409      0.04090040      0.02971060       1
O              12.00530000      8.71481000     11.73910000     -0.03837980     -0.04408550      0.14866200       8
H              10.51560000      7.57458000     12.32700000      0.04341160      0.04196040     -0.01818920       1
H              11.85950000      8.70177000     10.10310000     -0.00729476      0.00144609     -0.13201000       1
O              16.44510000     22.01030000      6.47699000      0.02337380      0.00446007      0.00822343       8
H              17.73700000     22.22220000      7.86305000     -0.03216730      0.01293800     -0.03831680       1
H              16.42660000     23.41180000      5.10780000      0.00394709     -0.02964850      0.03068030       1
O              10.66100000     10.54040000      3.35404000      0.11259500     -0.01709930      0.12704900       8
H               9.81113000     11.39550000      2.22212000     -0.04714910      0.06746600     -0.08625080       1
H              12.00780000     11.94260000      4.54078000     -0.05111460     -0.04887960     -0.04034540       1
O              22.19870000     12.44620000     14.88630000      0.02374560      0.07831020     -0.00497272       8
H              20.51730000     13.20820000     15.33660000      0.03204970     -0.00452808     -0.00598619       1
H              23.61520000     14.17990000     14.60240000     -0.05604010     -0.07103370      0.01254910       1
O               6.07361000     10.84270000      5.35212000     -0.03497250      0.04456910      0.06220810       8
H               6.12694000      9.72061000      4.08771000     -0.02188660     -0.06599960     -0.06824520       1
H               7.83056000     10.98070000      5.40872000      0.04420220      0.01392550      0.01075620       1
O              10.41630000     12.35020000     23.41420000      0.00343638      0.01039660     -0.03493990       8
H               8.63358000     13.06250000     22.89980000      0.07462440     -0.02077020     -0.00427304       1
H              11.93800000     12.39560000     22.12130000     -0.07350620      0.01268240      0.03648270       1
O              22.03840000     22.15130000     15.93290000     -0.02307860     -0.08081270     -0.19031900       8
H              21.86840000     22.65800000     17.41410000     -0.01232100      0.07175960      0.19951900       1
H              20.38890000     21.34340000     15.62060000      0.02153510      0.00892728     -0.01088840       1
O               9.63454000     20.48000000      7.37533000     -0.00936812     -0.04094440      0.01529810       8
H              11.49600000     20.03940000      7.53781000     -0.04941020      0.00474466      0.00976128       1
H               8.31827000     19.13820000      8.08496000      0.06242910      0.03570180     -0.02140100       1
O              24.18650000     11.88910000      5.05256000     -0.02315890     -0.01816470      0.12415400       8
H              22.77180000     11.99380000      6.61481000      0.03966450     -0.00810100     -0.07017680       1
H              25.46380000     11.36890000      6.44681000     -0.02229400      0.01693050     -0.05320540       1
O              23.63100000      6.17165000      3.12635000      0.07596710      0.12545100      0.03891870       8
H              24.07690000      8.29958000      2.56769000     -0.02869900     -0.09781760      0.01292400       1
H              24.98340000      6.62481000      4.59286000     -0.05066440     -0.03722730     -0.04762780       1
O               0.61863200     19.09410000     20.37040000      0.18263600      0.01362220     -0.08137750       8
H               1.25538000     18.36650000     18.48620000     -0.01766060      0.04294760      0.08413960       1
H              -0.86838600     18.50890000     20.16050000     -0.16543300     -0.05469430     -0.00442696       1
O               0.74619700     16.31190000     13.62960000     -0.25552700     -0.03853490     -0.20694800       8
H               0.16616700     18.08870000     13.10840000      0.00696657     -0.04675230      0.00330315       1
H               1.82257000     16.78820000     14.54560000      0.24849200      0.08658460      0.20874200       1
O              17.06120000     15.79660000     16.31280000     -0.02200410     -0.01313700     -0.09397440       8
H              17.60600000     17.38580000     15.24780000     -0.02032920     -0.04877560      0.02277180       1
H              16.07240000     14.60360000     14.86760000      0.04554960      0.06033570      0.06573950       1
