192
Lattice="24.29753 0.0 0.0 0.0 24.29753 0.0 0.0 0.0 24.29753" Properties=species:S:1:pos:R:3:force:R:3 TotEnergy=-1103.32344 cutoff=-1.0 nneightol=1.2 pbc="T T T"
O       13.30280000       0.33518300       4.27446000      -0.02050150       0.01301030      -0.00814460
H       12.61180000       0.02698400       2.63781000       0.00588505      -0.00654245      -0.01164670
H       12.47660000       1.93042000       4.65063000       0.01328200       0.00140879       0.01020270
O       22.73440000       2.78246000       9.81693000       0.00127943       0.00478430       0.00464364
H       22.66840000       3.96198000      11.25420000       0.00317833      -0.01137800       0.00493838
H       23.70860000       3.63680000       8.57137000       0.00376366       0.00262318      -0.00721263
O       13.61330000       0.12203900      17.00010000       0.00372410      -0.01217570       0.03331260
H       13.46740000       0.09710300      15.21240000       0.00180366       0.00723850      -0.01835650
H       14.58030000      22.93270000      17.40180000      -0.00442594      -0.00264600       0.00587124
O       23.76630000      15.20550000       0.10857500       0.02289410       0.04826470      -0.02970210
H       23.66130000      13.58940000       0.76233000      -0.00011416      -0.04295890       0.01923150
H        1.02744000      15.31220000      23.39590000      -0.01664170      -0.00803821       0.00912856
O       16.50430000      11.06120000      24.29380500       0.01023170      -0.01331850      -0.00861434
H       15.77540000       9.80523000      23.14898000       0.00799134       0.00781370       0.01600040
H       18.04200000      10.30300000       0.72099400      -0.01953360       0.00016754      -0.01228700
O        0.28252200      19.36310000       3.80290000       0.00355744       0.00817008       0.01030300
H        0.17999100      18.09800000       2.52896000      -0.00077426      -0.01497400      -0.00573930
H       22.95060000      20.16530000       3.72860000      -0.00417088       0.00660179      -0.00607273
O       19.15260000      16.14370000      22.50090000       0.03751320      -0.01042570      -0.00823634
H       18.15320000      16.58840000      23.90220000      -0.01667920      -0.00152405       0.01362270
H       20.75140000      15.40020000      23.22660000      -0.02530800       0.01823960      -0.01349630
O       23.38080000      10.44060000       8.29815000      -0.00079984       0.00050960       0.02060510
H       22.10360000      11.65860000       8.79427000       0.00844034       0.00159349      -0.00412982
H        0.33385700      10.46130000       9.71460000      -0.00832623       0.00209069      -0.02338030
O        7.67831000       7.65234000       9.89037000      -0.08978600       0.01671560       0.01357910
H        9.20184000       7.86574000      10.75120000       0.01519300       0.01828380       0.01365020
H        6.11184000       8.82390000      10.64110000       0.06291290      -0.04402630      -0.02134500
O        7.94259000       5.00373000      21.62990000      -0.01121560      -0.01600850       0.01909720
H        7.15549000       4.44816000      23.23140000       0.00636996       0.01269700      -0.02636470
H        6.63358000       5.81942000      20.60530000       0.01010890       0.00441548       0.01047460
O        4.26170000       7.00375000      14.19010000      -0.03407460      -0.04048230       0.01467150
H        4.48710000       5.19495000      13.74760000       0.00315645       0.02626140       0.00649475
H        2.37516000       6.91635000      14.57960000       0.02660930      -0.00065037      -0.00548300
O       20.31020000      15.16960000       9.90781000       0.00402024       0.01977710      -0.04671340
H       19.77600000      16.12870000       8.35441000       0.00820437      -0.01542760       0.02739390
H       18.80400000      14.25100000      10.25220000      -0.01079880      -0.00317543       0.01211610
O        8.54694000      21.30690000       4.65326000       0.02554240       0.01783160       0.02129160
H        9.69883000      22.31850000       5.72272000      -0.01268510      -0.01650520      -0.00806454
H        9.39395000      21.48450000       3.07996000      -0.00139076      -0.00448091      -0.01910630
O       21.45950000      22.07080000      20.27670000      -0.09480420       0.06500050       0.04754970
H       21.78030000      23.62837200      19.44030000      -0.00257095       0.00552611      -0.00188777
H       22.63520000      21.04600000      19.72250000       0.08483510      -0.06666110      -0.03968640
O        8.58879000       0.11190100      19.13720000       0.01385730       0.03765690      -0.02112940
H        8.72478000       1.89479000      19.64720000      -0.00937528      -0.01135990       0.00821488
H        9.83289000       0.23596600      17.74300000      -0.00621529      -0.02002190       0.01703270
O       17.82500000       2.78505000       8.86374000      -0.05326320       0.02476180      -0.01787860
H       19.53830000       2.37236000       8.99510000       0.03981520       0.00022599       0.00496947
H       17.74660000       4.37034000       7.82585000       0.00913173      -0.03169250       0.01969810
O        4.50228000      11.89650000      22.11800000       0.00188941      -0.02613090      -0.04433140
H        5.08160000      10.97060000      20.49970000      -0.01804380       0.00561858       0.03039390
H        5.85379000      13.05030000      22.27390000       0.00836614       0.01875680       0.00306646
O       17.01590000       3.09926000      20.74920000       0.03197900       0.05765540       0.04687000
H       16.32940000       1.92485000      21.84870000      -0.01468710      -0.02617330       0.02788350
H       16.67070000       2.51366000      19.19910000      -0.01811180      -0.03213620      -0.07875440
O        7.09003000       6.80524000       4.97804000       0.00479810      -0.03533950      -0.11967700
H        6.86111000       7.17820000       6.58118000      -0.00436410       0.02811810       0.11577100
H        5.81105000       7.73654000       4.08436000       0.00985870       0.01578940      -0.00241898
O        3.61908000       0.76563000      16.32350000       0.04911160      -0.01243600       0.03813790
H        4.82621000      24.14330000      15.17830000      -0.03260090       0.00961913       0.01509850
H        4.55435000       0.57407100      18.00240000      -0.00403770       0.00399921      -0.04476570
O       16.26490000      14.63510000      12.76150000       0.09267210      -0.04210340       0.00761676
H       16.18360000      13.87600000      14.38910000       0.01336500      -0.00176833       0.01789180
H       14.70320000      15.16120000      12.61770000      -0.11128500       0.04397770      -0.01785970
O        1.10927000      11.66160000      15.94790000      -0.02222260       0.03875020       0.02540590
H       24.12870600      13.31280000      15.55490000       0.03361200      -0.05168820       0.00908094
H        1.36754000      11.61860000      17.81950000      -0.00407915       0.00038423      -0.03989030
O        3.44010000      21.24630000      12.81980000      -0.01929560      -0.00847185      -0.00233859
H        2.36042000      20.64940000      14.19970000       0.00709608       0.00813568      -0.01182870
H        2.26509000      21.50550000      11.39700000       0.01583090      -0.00471005       0.01645620
O        2.86183000       3.90395000       4.90364000      -0.00113443      -0.00075015       0.00444179
H        4.47759000       4.78243000       4.75200000      -0.00213558      -0.00776437       0.00806403
H        3.12758000       2.59819000       6.17898000      -0.00546246       0.00416088      -0.01556280
O       14.07110000       2.17996000      12.97350000       0.03425630       0.00835420      -0.07629330
H       15.73610000       1.90981000      11.98410000      -0.02856050       0.01215190       0.03202650
H       13.11110000       2.48811000      11.41010000      -0.00512420      -0.00473427       0.01855340
O       24.06113100       2.25761000      18.91130000       0.02117560      -0.01933430      -0.04944790
H       23.57635700       3.25742000      20.30990000       0.01266800       0.00528147       0.02765850
H        1.50588000       1.34634000      18.64920000      -0.04596480       0.03053210       0.00319384
O        0.03876900      10.86600000       3.18630000      -0.08262010      -0.08544630       0.03610830
H        0.26661800      10.34900000       4.99552000      -0.01635650       0.00777082      -0.02236190
H        1.26004000      11.96210000       3.03726000       0.10111600       0.07511200      -0.01416720
O       10.49050000      11.80120000       9.20627000      -0.01421720      -0.08756240      -0.12084700
H       10.13960000      12.63590000       7.59362000       0.00263776       0.00157345       0.02282460
H       10.80610000      12.76070000      10.48980000       0.01614700       0.09833220       0.09862100
O       15.66330000       7.22971000      14.51260000       0.02568010       0.01296220       0.05544140
H       15.26720000       7.59016000      12.87740000      -0.00582560       0.01657520      -0.06548850
H       14.80790000       5.71600000      14.82670000      -0.00969160      -0.03352430       0.00406081
O       23.20980000       4.82618000      14.56330000       0.00757382      -0.00103216       0.05740660
H       23.68740000       3.44242000      17.06880000      -0.00278043       0.00888325      -0.03725910
H       22.26300000       6.19367000      15.35580000       0.00654363      -0.00846714      -0.01164200
O       13.01950000       6.93287000      21.79290000       0.03067100      -0.00216662      -0.00031884
H       11.26030000       6.72366000      21.71000000      -0.03173820      -0.00661659      -0.00011903
H       13.72680000       5.49243000      20.91820000       0.00089338       0.00308338       0.00713825
O       19.72790000       8.26586000      18.42440000      -0.04621310      -0.05372980       0.03455830
H       19.02710000       6.83253000      19.80430000       0.02570180       0.06395550      -0.05836230
H       18.64790000       7.94769000      16.91610000       0.01169340      -0.00346779       0.01832580
O       18.09800000      13.80530000      17.44540000       0.04540980      -0.09192250       0.02786710
H       18.24810000      14.38470000      19.15880000      -0.01269910       0.00937518       0.01506800
H       18.90460000      11.62870000      17.91820000      -0.03147970       0.07544660      -0.01735950
O        7.95495000      21.15940000      23.04340000      -0.02358260       0.00033061       0.00724455
H        8.15845000      22.81340000      22.24760000       0.00412866      -0.01811850      -0.00363112
H        6.13450000      21.12150000      23.49770000       0.02440370       0.00865085       0.00291897
O        5.27954000      11.20890000       2.61699000       0.02806960       0.03456420       0.02645200
H        5.67016000      10.98140000       0.90117100      -0.00919448      -0.01469430      -0.02963700
H        6.45172000      12.65540000       2.91838000      -0.02137000      -0.01985200       0.01698000
O        7.36395000      15.57470000       5.24142000       0.02801480       0.02222420      -0.00354230
H        8.55666000      16.99670000       5.00327000      -0.01706330      -0.01899670      -0.00284064
H        6.59422000      16.04550000       6.80850000      -0.01154680      -0.00385920       0.00765335
O       17.19300000      17.82500000       5.60573000      -0.01795320       0.02452980       0.01767680
H       15.88040000      18.78350000       6.59697000       0.02561160      -0.01815060      -0.01420860
H       18.16470000      19.18790000       4.86564000      -0.00211041      -0.00623643      -0.00174309
O       24.15543400      18.80290000       9.20462000       0.03146540       0.06056100      -0.03516440
H        0.08201900      18.88000000       7.34686000       0.00160514       0.00126600       0.02057750
H       23.38550000      17.30560000       9.46537000      -0.03816050      -0.06225000       0.01467180
O       20.25640000       7.38617000       1.74102000       0.02605420       0.00142864      -0.00374075
H       19.77400000       7.94593000       3.46274000       0.01408380      -0.01310100      -0.01411400
H       22.12810000       7.51602000       1.44038000      -0.04197220       0.00939398       0.02001220
O       18.22800000      20.96800000      12.98380000      -0.02588860       0.05142970      -0.01094880
H       17.65330000      20.16530000      14.44810000       0.00633826      -0.02461130       0.01152940
H       19.49330000      20.29050000      11.96440000       0.01871840      -0.02498270      -0.00064253
O       15.92870000      19.87690000      19.46910000       0.20851600       0.08767810      -0.15057600
H       17.80340000      19.51080000      19.91960000      -0.06390650       0.00913159      -0.00400617
H       14.87570000      19.33190000      20.47660000      -0.14495400      -0.10261600       0.14941600
O       10.99730000      15.50140000      13.25120000       0.02300420      -0.04185440       0.00683731
H       10.82020000      16.97250000      12.34270000       0.00367589       0.05534480      -0.03129970
H        9.46520000      15.52800000      14.10380000      -0.02809780      -0.01131220       0.02596460
O        4.95273000      17.06570000      20.16540000      -0.04404700       0.02123940       0.01601560
H        5.96608000      18.16820000      21.15050000       0.01578590       0.00811199       0.00107041
H        5.97829000      15.97800000      19.27100000       0.02864120      -0.02479920      -0.01999130
O        3.16480000      10.75120000      11.14780000      -0.02414490      -0.03495290       0.04559230
H        4.09501000      12.14350000      11.67490000       0.02099810       0.04393650      -0.00956097
H        2.51553000      10.38410000      12.94020000       0.00731629       0.00061185      -0.03657660
O       18.94770000       7.67546000       7.13172000      -0.00160924      -0.02213930      -0.04015830
H       17.61350000       8.00948000       8.27354000      -0.00379597       0.02193830       0.01346070
H       20.54960000       8.34474000       7.57505000       0.00957883       0.00638912       0.01885120
O        9.59381000      13.77120000      18.80180000      -0.06307450       0.07280820       0.02503800
H       10.52240000      15.31880000      18.62640000      -0.00654501       0.01041040       0.01189520
H       10.78070000      12.74200000      18.22160000       0.06636930      -0.08123810      -0.03557630
O       12.27390000      16.89490000      22.82670000       0.01859830      -0.04759560      -0.00550151
H       11.28750000      18.13980000      23.56790000      -0.02169840       0.02638440       0.01636650
H       12.18550000      15.38800000      23.94096400       0.00406952       0.02982500      -0.01430290
O        3.30186000      22.85830000       0.37224500       0.00535357      -0.00183583      -0.00333389
H        1.96374000      22.07170000       1.30659000      -0.00473048      -0.00022292       0.00359604
H        2.55970000      23.69570000      23.26050000      -0.00768879       0.00110858       0.00023669
O        6.20546000       8.72296000      18.61590000      -0.01438030      -0.01254100      -0.06531170
H        7.67812000       9.72655000      18.22280000       0.00236126      -0.00738694       0.00125643
H        5.61675000       8.04374000      16.71730000       0.00749392       0.01722540       0.05234520
O        2.57881000       6.01223000      23.69850000      -0.01675820       0.08398260       0.02727270
H        2.42457000       8.17262000      23.57770000       0.00859558      -0.09973840       0.01231430
H        2.29452000       5.57071000       1.24014000       0.00977410       0.01613000      -0.03535890
O       10.73910000      20.58480000      11.88310000       0.10871100      -0.01661620      -0.01460450
H        9.59740000      21.37590000      10.90280000      -0.06772830       0.03644870      -0.03447820
H       12.28700000      21.03790000      10.66800000      -0.04053050      -0.01767740       0.04590980
O        9.22585000       1.98539000       9.29830000      -0.02892190      -0.02525440      -0.05522010
H        8.70953000       3.55741000      10.03060000      -0.01114530       0.00621817      -0.00876257
H        8.10102000       1.64995000       7.68523000       0.03837870       0.02182650       0.06441270
O       14.11570000      22.47620000      23.91638900       0.03051950      -0.00848233      -0.02360790
H       14.82140000      21.92170000      22.22760000      -0.01446860       0.01511680       0.03585490
H       15.53140000      22.22910000       0.78566800      -0.01067570       0.00118870      -0.01272380
O       22.29720000      15.19390000      15.21050000      -0.06863620       0.03024750       0.04205960
H       21.27730000      15.98580000      13.88740000       0.01797150      -0.01171000      -0.00411893
H       20.69140000      15.07630000      16.61350000       0.04270670      -0.01590620      -0.04652910
O       22.13870000       2.23842000       0.55229600      -0.01306560       0.03894830      -0.00278888
H       20.77750000       3.57665000       0.56518400       0.02543530      -0.02415220       0.00400597
H       23.64580000       3.20007000       1.04574000      -0.01708770      -0.01635860       0.00035029
O       13.73670000      13.95550000       3.20674000      -0.13012000       0.07973470       0.07924130
H       14.24190000      12.88950000       2.11618000       0.06425030      -0.11391200      -0.10829900
H       15.03340000      14.67130000       4.02225000       0.06352010       0.03345730       0.03355170
O       12.47600000       5.78180000       3.52673000      -0.00860167      -0.01321080      -0.03193900
H       11.26400000       7.13288000       3.81429000       0.00287974      -0.01351600      -0.00535934
H       12.20480000       5.12994000       1.76294000       0.00555415       0.02481200       0.03643910
O       15.45150000      10.20140000       9.88932000      -0.04709650       0.00016617      -0.01176850
H       13.66910000      10.79660000       9.42336000       0.02917640      -0.02002370      -0.00351135
H       15.75310000      11.35520000      11.21850000       0.01427260       0.01446440       0.01357750
O       14.85730000      22.39790000       8.20556000       0.00319283      -0.01859000       0.04296620
H       15.43440000      22.76790000       6.55769000      -0.00005742       0.01959700      -0.00915985
H       15.95690000      23.21720000       9.45090000      -0.00619421      -0.00945408      -0.02195270
O        4.07371000      23.13520000       6.26676000       0.01432230      -0.00232364      -0.01878150
H        5.47538000      23.57210000       5.12747000      -0.01383580      -0.00329412       0.01368610
H        3.71553000      21.50930000       5.50690000      -0.00723198       0.00463262       0.01124110
O        0.53997400      19.54970000      17.89820000       0.01022460       0.03676880      -0.01416580
H        1.68369000      18.54760000      18.74490000       0.06411420      -0.01327110       0.02512700
H       23.65690000      18.29050000      17.93610000      -0.05782670      -0.03596150      -0.02334180
O       20.30880000      21.54240000       1.34648000      -0.01319220       0.00201976       0.04034500
H       20.50600000      20.42900000      24.23092300       0.00544385       0.02460450      -0.01260910
H       20.64530000      23.38410000       1.26458000       0.00688657      -0.02724510      -0.02282060
O        4.40938000      16.08000000      10.25220000       0.00826260       0.01939250       0.06097540
H        2.59901000      16.30740000      10.29640000       0.00350630       0.00212546      -0.01276210
H        4.76317000      17.01900000      11.91690000      -0.00150894      -0.01786570      -0.04963540
O       12.18950000       9.45601000      17.45060000      -0.06961670       0.05694950      -0.11307900
H       12.80560000       8.94395000      18.87140000       0.05084240      -0.04525780       0.12576600
H       13.43990000       9.10250000      16.22080000       0.01275440      -0.00468557      -0.01364700
