192
TotEnergy=-1103.36308000 cutoff=-1.00000000 nneightol=1.20000000 pbc="T T T" Lattice="23.95001000       0.00000000       0.00000000      -0.00000100      23.95001000       0.00000000      -0.00000100      -0.00000100      23.95001000" Properties=species:S:1:pos:R:3:force:R:3:Z:I:1
O              20.06440000      2.95284000    -32.23130000      0.02406820      0.06524940      0.02162520       8
H              19.49940000      4.04212000    -30.74400000      0.01114830     -0.04040210     -0.02661650       1
H              19.27290000      1.41861000    -32.58450000     -0.03548560     -0.02769140      0.01146610       1
O              48.48150000     46.70830000      9.44729000      0.05495210      0.00642024      0.04414280       8
H              49.84430000     45.79520000      8.68689000      0.02267420     -0.00756382      0.01118790       1
H              47.38950000     46.44720000      8.18296000     -0.07857560     -0.00290735     -0.05769970       1
O              10.48430000      0.55775500     14.83280000      0.02976000     -0.03662320     -0.01408620       8
H              10.48940000     -1.31267000     15.09290000      0.01098510      0.02469390     -0.00764602       1
H               9.13759000      1.04123000     15.82420000     -0.04127890      0.01804900      0.01877290       1
O              -5.09710000     -9.85692000     -0.14370800     -0.03366040      0.03069940     -0.00865530       8
H              -4.45432000     -8.62551000     -1.40371000      0.00349860     -0.00726161      0.01141420       1
H              -6.67734000     -8.88290000      0.35405800      0.03129040     -0.02281740      0.00198223       1
O               9.03347000     28.98430000     21.63010000     -0.10855400     -0.10984800     -0.03521760       8
H               9.89432000     30.18620000     22.24370000      0.08200070      0.13226000      0.07289100       1
H              10.18860000     28.29270000     20.46880000      0.02415640     -0.02092570     -0.04376100       1
O              -2.81030000     13.94590000      8.68159000      0.01817230     -0.00153588     -0.07067480       8
H              -2.48567000     13.18280000      6.72421000     -0.01574720      0.02465320      0.07218110       1
H              -1.52315000     15.29780000      8.98317000     -0.01147950     -0.02396280     -0.00720319       1
O              38.39970000     22.68970000     11.10620000     -0.02038340     -0.04295310      0.01483270       8
H              39.78560000     23.44890000     10.25560000      0.01120900     -0.00084323     -0.01568190       1
H              38.10860000     20.85990000     10.54170000      0.01285470      0.04921500     -0.00255543       1
O               1.02839000    -22.76090000     14.30390000     -0.04894280     -0.02188080      0.00539798       8
H               0.61373200    -23.89290000     12.86380000      0.00928603      0.01819570      0.01345760       1
H              -0.66659100    -22.52400000     15.17620000      0.03242330      0.00460430     -0.01868420       1
O              30.22230000    -34.47550000     18.05070000     -0.03942870     -0.39823500      0.03681830       8
H              31.52220000    -35.73690000     19.26580000     -0.03823460      0.06602110     -0.04373400       1
H              30.54250000    -33.01950000     18.08020000      0.08336050      0.32210500      0.01725350       1
O               7.52363000    -28.26560000    -24.40820000     -0.02742220      0.00710190      0.00480536       8
H               9.15566000    -29.01200000    -24.68740000      0.00734206     -0.01373410      0.00948320       1
H               6.33293000    -29.23340000    -23.33690000      0.01414830      0.00672433     -0.00857402       1
O             -12.25820000      1.73619000      5.01091000      0.04446350      0.05946470     -0.02156030       8
H             -13.96580000      1.75358000      4.46715000     -0.02784250     -0.00790651     -0.00165972       1
H             -11.61980000      3.41886000      4.11130000     -0.01621600     -0.05190320      0.02206620       1
O             -10.83740000     29.39540000     49.56170000     -0.03615600     -0.01322320     -0.02092270       8
H             -10.77240000     28.50530000     47.91970000      0.01606640      0.00805962      0.02808350       1
H              -9.23581000     30.00550000     50.03370000      0.03004560      0.00501888     -0.00497192       1
O              13.64950000    -29.25910000    -16.34920000     -0.01193610     -0.06289100      0.04662660       8
H              14.65540000    -31.05980000    -15.79350000     -0.04139070      0.06195090     -0.03851000       1
H              11.82500000    -29.50090000    -15.63150000      0.04922660      0.01383490     -0.01697200       1
O              25.68760000     16.32080000     34.36400000      0.03565810      0.09227610     -0.07476260       8
H              27.30440000     17.37120000     33.64690000     -0.06962330     -0.05285070      0.03492100       1
H              26.20350000     15.15980000     35.54280000      0.02889790     -0.03595230      0.03864830       1
O              -0.10163700      2.21829000     -1.46794000      0.03990030      0.12796400     -0.09702070       8
H               1.56476000      2.69082000     -2.37963000     -0.04546820     -0.03434610      0.04661920       1
H              -0.49866600      0.91865600     -0.48118300      0.00969736     -0.08240940      0.04751940       1
O             -26.95040000     23.59460000     28.93220000      0.05097610     -0.04993090     -0.06100060       8
H             -25.40780000     22.95990000     27.71780000     -0.05484820      0.02529280      0.03902230       1
H             -28.27610000     22.44630000     28.22890000      0.01107930      0.02630410      0.02149030       1
O             -31.06680000      9.08359000     22.58260000      0.00597117     -0.00268019     -0.02040820       8
H             -31.43150000      9.04441000     20.79850000     -0.02166940     -0.01206390     -0.00614778       1
H             -30.29390000     10.71460000     22.51660000      0.01288890      0.01810400      0.02104190       1
O             -20.03790000     59.89170000    -17.59510000     -0.06367850     -0.05230660     -0.05670050       8
H             -18.40300000     60.42930000    -17.58370000      0.05979610      0.02330370      0.00619134       1
H             -20.23560000     58.97010000    -19.31890000      0.00827946      0.03321680      0.05893770       1
O              64.93940000     22.26510000     39.62650000     -0.06950410      0.04646480     -0.03235410       8
H              63.43800000     22.49220000     38.23760000      0.05138570     -0.00405334      0.04074140       1
H              65.76920000     20.87510000     38.94260000      0.01711130     -0.03387340     -0.01040460       1
O              54.32540000    -22.51890000      4.17613000      0.00872720     -0.00248658      0.01142340       8
H              53.02050000    -21.52100000      4.95681000     -0.00180791     -0.00028084      0.01069000       1
H              53.89290000    -22.62680000      2.43762000     -0.00117907     -0.00647284     -0.02412710       1
O              33.20970000     18.95280000    -13.60790000      0.02002490      0.06857130      0.02796830       8
H              32.73990000     17.29720000    -13.73190000     -0.02346020     -0.07705830     -0.01041190       1
H              33.54130000     19.14030000    -11.79480000     -0.00065549      0.00660563     -0.01459900       1
O              -9.92010000      6.79703000     60.64640000      0.02834220      0.03280440      0.02195120       8
H             -10.63910000      5.26658000     60.10110000     -0.00364761     -0.01427870     -0.01413230       1
H              -7.97589000      6.74870000     60.56870000     -0.03914350     -0.00096622     -0.00881407       1
O               6.18570000      0.47478500     -0.95079900      0.06451340      0.02336960     -0.02760050       8
H               6.79640000     -1.42082000     -0.92786900     -0.00352081      0.05015250      0.00155029       1
H               7.72528000      1.84380000     -1.47553000     -0.06533520     -0.06670070      0.02511100       1
O              44.51090000      5.74842000     20.30300000     -0.00389881      0.00599953      0.02945790       8
H              43.36610000      6.86262000     21.36400000      0.02746600     -0.02684650     -0.00591496       1
H              45.82720000      4.76015000     21.36420000     -0.03367790      0.01685630     -0.01531210       1
O              -3.09696000     59.28890000     27.85730000      0.08911340      0.07179690     -0.03752770       8
H              -3.44394000     60.74240000     26.48530000     -0.00481899     -0.04700580      0.03266250       1
H              -1.02826000     59.57470000     27.76530000     -0.08195760     -0.02162130      0.00179557       1
O               7.66189000     38.14020000     10.02660000      0.00536995      0.00103766      0.03468990       8
H               6.64608000     38.47620000     11.70870000      0.02466470     -0.03486770     -0.04767590       1
H               9.06054000     36.80770000     10.32120000     -0.02928920      0.02895700      0.00372727       1
O             -17.02920000     18.29080000     18.56640000      0.09750480     -0.04539980      0.03784920       8
H             -18.40870000     19.18850000     18.31380000     -0.09393890      0.06226860     -0.02732510       1
H             -16.60310000     18.88410000     20.29000000     -0.00695347     -0.01235470     -0.01187030       1
O              33.42730000     33.16980000     49.77250000     -0.07161840      0.02057880     -0.00071018       8
H              34.41040000     31.64140000     49.48650000     -0.01515360     -0.00311789      0.01524610       1
H              31.30360000     33.09810000     49.91830000      0.08393630     -0.02153860     -0.01087440       1
O              13.86120000     33.47590000     17.67730000      0.02558050      0.08383930     -0.01254470       8
H              14.37120000     35.33150000     16.78660000     -0.02668080     -0.07847180      0.02406580       1
H              13.49290000     32.26330000     16.37890000      0.00293593     -0.00014228     -0.01224960       1
O              -0.26409100    -26.54720000     24.80920000      0.11368300      0.01113670      0.08030320       8
H              -1.14638000    -27.52780000     23.76320000     -0.05344670     -0.05513960     -0.05955540       1
H               1.39291000    -27.69040000     25.30390000     -0.06155230      0.04032700     -0.01542690       1
O               2.20550000     12.98990000      0.85212500     -0.02393820      0.08237930     -0.03985370       8
H               2.92813000     11.41330000      1.01494000      0.02378700     -0.03875410     -0.01470530       1
H               2.22928000     13.75510000     -1.00005000     -0.00676909     -0.03728750      0.05219040       1
O               5.31505000      2.91078000     15.94290000     -0.01039960      0.01616600      0.00593057       8
H               3.52042000      3.25649000     15.65510000      0.00972635     -0.01530870     -0.00639421       1
H               5.64535000      4.07223000     17.29920000      0.00664512      0.00014743      0.00197829       1
O             -35.40230000     51.59750000    -29.45080000      0.00361270     -0.01077890     -0.00977131       8
H             -35.59670000     50.38240000    -30.84520000     -0.00241829      0.00869763      0.00657941       1
H             -34.04630000     50.90890000    -28.40800000     -0.00498261      0.00083083      0.00144840       1
O               3.36506000     50.92960000    -16.16580000      0.05242160      0.05960240     -0.01619070       8
H               4.77075000     51.50420000    -14.98330000     -0.02995580     -0.01453700     -0.00693949       1
H               2.34186000     49.63470000    -15.64610000     -0.02472370     -0.03888690      0.03126840       1
O             -33.91630000     36.01870000      2.58933000     -0.00268563      0.02068780      0.01570400       8
H             -33.05990000     34.74620000      1.65989000     -0.00578828     -0.01068230     -0.00948222       1
H             -35.73600000     35.78540000      2.57376000      0.01199680     -0.01276260     -0.00492464       1
O              21.91610000     34.24380000     12.13990000      0.07536920     -0.09245480      0.04477490       8
H              23.57540000     33.72090000     11.34430000     -0.02761980      0.00543378      0.02041490       1
H              21.47830000     35.45900000     11.06920000     -0.03549980      0.08315580     -0.06465070       1
O             -12.63280000    -20.60810000      9.92668000      0.02574840     -0.03094030      0.00807225       8
H             -12.24480000    -21.18620000      8.11937000     -0.00474811      0.00114779      0.03622930       1
H             -11.85110000    -21.83160000     11.23140000     -0.02938310      0.02164090     -0.04699830       1
O             -43.83740000      6.18041000     20.78840000      0.03656120      0.04550400     -0.03086250       8
H             -44.20330000      7.69664000     19.50420000      0.01612940     -0.05776220      0.04749260       1
H             -41.85920000      5.99353000     21.20440000     -0.05794670      0.00884859     -0.02161330       1
O             -20.30680000    -15.05570000     34.61580000     -0.04804720      0.09329770     -0.05641960       8
H             -19.15560000    -16.37010000     34.61810000      0.03755720     -0.03679160     -0.00286300       1
H             -20.13010000    -13.82350000     32.94030000     -0.00259688     -0.05107260      0.05143950       1
O              15.70680000     14.27180000     31.07670000      0.06113040      0.00586588      0.03012500       8
H              17.60960000     14.51570000     31.28230000     -0.03556580     -0.00672181      0.00971148       1
H              15.71050000     13.30770000     29.57380000     -0.01892340     -0.01135270     -0.02855230       1
O             -21.00870000     -2.24616000     42.36450000      0.01505380      0.07935650      0.01751400       8
H             -20.40790000     -0.71383000     43.54950000     -0.01747740     -0.06389010     -0.03103830       1
H             -21.42270000     -1.15952000     40.88220000      0.00358018     -0.01651760      0.00919542       1
O              42.11040000      2.78441000     31.92670000      0.02964860     -0.00080882      0.01804690       8
H              42.35700000      3.93463000     33.46240000      0.00679626     -0.02084260     -0.04123900       1
H              43.75090000      2.05898000     31.20580000     -0.03871950      0.01751240      0.02729940       1
O             -10.08070000    -33.32180000     -8.99413000      0.06478200      0.04461370     -0.00318856       8
H              -8.23828000    -32.34160000     -9.46088000     -0.07426910     -0.04157500      0.00897520       1
H             -11.16490000    -33.72660000    -10.43040000      0.01997800     -0.00327041     -0.00140087       1
O              54.56230000    -18.89550000    -12.76410000      0.00124876     -0.02976510      0.01704710       8
H              56.32360000    -19.13110000    -13.45150000     -0.01816230     -0.01260960      0.02218260       1
H              54.14550000    -20.03570000    -11.21760000      0.02452270      0.03041590     -0.03649250       1
O              16.01840000     -1.58914000      4.51225000     -0.07055630      0.01951610      0.01565430       8
H              14.87930000     -0.07243900      3.94762000      0.03248770     -0.04676740      0.01809710       1
H              14.86550000     -2.36070000      5.91367000      0.03412550      0.01609120     -0.03594470       1
O             -36.16370000     -6.44716000     46.25600000     -0.00321929      0.01419130     -0.00709558       8
H             -35.87510000     -7.96381000     45.40400000     -0.00876516     -0.03015570     -0.02402140       1
H             -35.01050000     -6.66440000     47.61580000      0.01866070      0.01114790      0.03082530       1
O               4.27655000    -11.09450000    -10.56850000      0.00890512     -0.01657700      0.03612950       8
H               5.12354000    -11.48650000     -8.87464000     -0.02109060      0.01223330     -0.03465050       1
H               3.96200000    -12.73730000    -11.50690000      0.01154160      0.01337490      0.01313720       1
O              18.73320000     17.54390000     14.07890000     -0.06803780      0.00221772      0.32794400       8
H              19.11380000     17.52090000     12.63730000      0.08690910     -0.00783863     -0.31573900       1
H              20.34070000     17.61220000     15.12760000     -0.02067500     -0.00272762     -0.01878150       1
O              11.34520000     19.60290000     -8.02664000      0.01696890     -0.02205380     -0.00807438       8
H              12.31880000     18.06960000     -8.42648000     -0.00296309      0.01181130      0.00113929       1
H              10.40130000     19.06030000     -6.58272000     -0.01526570      0.00132242      0.00159635       1
O              24.47920000     54.10010000     29.06000000     -0.06346640      0.17740200     -0.10090700       8
H              22.99920000     53.51690000     28.40610000     -0.04364040     -0.02991020     -0.01866610       1
H              25.40150000     53.15080000     29.91080000      0.10989800     -0.13803400      0.11493000       1
O              -4.98576000      5.56791000      3.22425000     -0.03999520     -0.16156500     -0.08956730       8
H              -5.37023000      3.83433000      4.04798000      0.01503570      0.06745590     -0.00684591       1
H              -4.67076000      6.86569000      4.15636000      0.02080560      0.10050800      0.09573460       1
O              15.19200000    -26.84560000     20.50350000      0.01403260     -0.02167350      0.12247300       8
H              13.88430000    -27.98260000     21.14230000      0.00489278      0.00853949     -0.00943135       1
H              15.01550000    -26.54410000     18.87950000     -0.01171480      0.01440770     -0.11367600       1
O              -4.00622000     18.51760000     45.08560000     -0.01034610      0.01019960     -0.00136514       8
H              -3.09867000     18.40310000     43.42790000     -0.02245310      0.01105500      0.02200290       1
H              -5.60809000     19.59220000     45.17700000      0.03550410     -0.02274070     -0.02221280       1
O              39.17840000     41.85320000      2.03272000      0.00135857      0.04681560      0.05257970       8
H              39.90920000     43.63420000      2.65095000     -0.01942360     -0.04003090     -0.02600790       1
H              38.21360000     41.63590000      3.65249000      0.01377430     -0.00957230     -0.02597410       1
O              23.06080000     17.77760000    -31.17680000      0.05463710      0.01176350      0.02173200       8
H              23.78390000     16.06230000    -30.82700000     -0.00924315      0.02263990      0.00136432       1
H              24.55350000     18.98840000    -30.69150000     -0.04823710     -0.03274800     -0.01309520       1
O             -20.27840000     41.94690000      2.66275000      0.02861860      0.04512580      0.02793160       8
H             -20.50710000     40.21680000      2.69632000     -0.01637770     -0.05216440     -0.00932080       1
H             -19.46310000     42.25970000      4.33718000     -0.01367310      0.00883593     -0.01981200       1
O               5.33136000    -27.39260000     31.17690000     -0.03585290     -0.00518379     -0.02361690       8
H               6.43089000    -27.65180000     32.51790000      0.03251330     -0.00901003      0.03242010       1
H               5.91619000    -25.87200000     30.42540000      0.00360705      0.01861940     -0.01412980       1
O               4.20967000     32.25340000      1.64171000      0.00898373      0.03777410      0.13274100       8
H               3.57293000     31.71750000      0.17098300     -0.03686620     -0.03926250     -0.07890070       1
H               2.93123000     31.96550000      3.13430000      0.02532600     -0.01464640     -0.04709570       1
O             -12.01730000    -12.42470000     10.84210000      0.02493740     -0.01493980     -0.02808820       8
H             -11.78030000    -14.32170000     11.31870000      0.01217070      0.04729530     -0.01786420       1
H             -10.84190000    -11.77600000      9.39790000     -0.02826300     -0.03411960      0.04490360       1
O              -5.16144000      6.44374000     11.79280000      0.01615660     -0.01903130      0.01407180       8
H              -3.84514000      7.71954000     11.67160000     -0.00350892      0.01779080     -0.00669001       1
H              -4.42175000      5.43545000     13.15440000     -0.00875982     -0.00810781     -0.00245844       1
O              25.07650000    -10.13830000     -4.30601000      0.01025150     -0.05623350     -0.00327636       8
H              26.88610000    -10.50630000     -4.73532000     -0.01863450      0.01046870     -0.00302723       1
H              24.32800000    -11.95670000     -4.51664000      0.01717390      0.04785440     -0.00282406       1
O              23.76850000      8.93225000     41.69510000     -0.00392653      0.00773427     -0.02942110       8
H              22.22340000      8.45094000     42.68590000      0.02155180     -0.00862135     -0.03383490       1
H              23.63370000      8.98036000     39.74210000     -0.01321760      0.00062338      0.06469020       1
O              15.70990000     26.18010000     45.97380000      0.06047750     -0.02265750     -0.03724990       8
H              17.17080000     27.10450000     45.18600000     -0.02328800     -0.00433131      0.02271340       1
H              16.32910000     24.40840000     45.51350000     -0.02985010      0.02781680      0.01718900       1
O             -13.69050000     11.47040000     21.12530000     -0.04921350      0.08085790     -0.03336780       8
H             -12.52030000     10.77370000     20.08530000      0.05224070     -0.03621750     -0.04399810       1
H             -13.94490000     10.56230000     22.54080000     -0.00854584     -0.04198640      0.07106060       1
