192
TotEnergy=-1103.41733000 cutoff=-1.00000000 nneightol=1.20000000 pbc="T T T" Lattice="24.43994000       0.00000000       0.00000000      -0.00000100      24.43994000       0.00000000      -0.00000100      -0.00000100      24.43994000" Properties=species:S:1:pos:R:3:force:R:3:Z:I:1
O               5.00519000     13.15390000      2.40624000     -0.00370634      0.00239077      0.00274854       8
H               4.63724000     14.06770000      0.88511800      0.00349399     -0.00179438     -0.00261180       1
H               3.88981000     11.73080000      2.33031000      0.00038125     -0.00337656     -0.00390676       1
O              22.03380000     20.11450000     14.27690000     -0.00019567     -0.00111254      0.00608955       8
H              21.31310000     19.28100000     15.72330000      0.00092871      0.00009815     -0.00503245       1
H              23.55950000     19.20920000     13.90100000      0.00010069      0.00073622     -0.00177405       1
O               7.19437000     15.91960000     16.39900000     -0.00410469      0.00196120      0.00102479       8
H               6.32739000     14.53340000     15.59580000      0.00583244      0.00039386     -0.00085619       1
H               6.70544000     15.87040000     18.13900000     -0.00143833     -0.00408364      0.00271932       1
O              22.03780000      1.71311000      7.99773000      0.00549255      0.00528867      0.00680766       8
H              22.90970000      1.01026000      6.56728000     -0.00376884      0.00448920     -0.00298286       1
H              21.28040000      0.39037600      8.97330000     -0.00248095     -0.00577302     -0.00126931       1
O              12.73980000     15.55660000     18.13840000      0.00004487      0.01031450      0.00119785       8
H              14.13180000     15.27420000     19.29230000      0.00223160     -0.00214985      0.00013226       1
H              11.47990000     16.57450000     19.02590000      0.00546238     -0.01327940     -0.00566796       1
O               4.24851000      7.58866000     17.57840000     -0.00132821      0.00605435      0.00507057       8
H               5.23648000      6.11450000     17.15430000     -0.00177825     -0.00462562      0.00419715       1
H               5.24374000      8.32735000     18.96440000     -0.00750180      0.00008022     -0.00514585       1
O              12.39780000      3.40531000     20.79960000     -0.02529670      0.02694520     -0.00423324       8
H              10.97600000      4.56828000     20.42790000      0.02379590     -0.01989740      0.00490923       1
H              11.68980000      1.74766000     20.57700000      0.00452082     -0.00005102      0.00152422       1
O               2.18691000     15.05740000     20.99780000      0.00022864      0.00177182      0.00263577       8
H               0.99689600     15.05950000     19.62320000     -0.00112312     -0.00053199     -0.00044687       1
H               1.62942000     13.66540000     22.03490000      0.00155594     -0.00227388      0.00016916       1
O              10.34550000     18.12960000     21.84300000      0.00027841     -0.00085557     -0.00175547       8
H               9.30416000     17.73680000     23.27850000     -0.00150378      0.00413833      0.00117031       1
H              12.01400000     17.75570000     22.44250000     -0.00063930      0.00115807      0.00519711       1
O              17.24240000     15.57470000     11.57590000     -0.00568902     -0.00250461     -0.00467331       8
H              17.90900000     14.17250000     12.52960000      0.00113317      0.00406760     -0.00089858       1
H              15.62600000     14.94770000     10.99220000      0.00217254     -0.00110299      0.00440329       1
O              15.69830000     19.17060000     15.69470000      0.00067537     -0.00678440      0.00306387       8
H              14.56050000     17.78560000     16.18640000      0.00565011      0.00132016      0.00184500       1
H              16.21350000     18.78710000     13.99670000      0.00653658     -0.01058360     -0.00115503       1
O               3.49981000     21.94790000     12.44560000     -0.00226182     -0.00555467     -0.00177282       8
H               5.10096000     21.75150000     13.39380000     -0.00549748     -0.00129350     -0.00074106       1
H               3.86985000     21.56750000     10.71600000      0.00467908      0.00536257     -0.00503469       1
O               3.07915000     19.60290000      3.41849000      0.00257056      0.00256543      0.00306177       8
H               3.79014000     21.12240000      4.13260000     -0.00112844     -0.00561712     -0.00066440       1
H               4.25191000     18.35110000      4.01929000     -0.00362652      0.00059550      0.00084287       1
O               0.42473800     10.25620000     23.49540000      0.00534930      0.00387697      0.00002807       8
H               1.60878000      8.92929000     23.91220000     -0.00281734     -0.00242848      0.00182583       1
H              24.50330000     10.01960000     21.74360000     -0.00106195     -0.00242916     -0.00135554       1
O               6.89014000      2.86143000     17.97840000      0.00163959     -0.00055164     -0.00538685       8
H               7.15886000      2.03071000     19.61430000     -0.00115174      0.00348599     -0.00016361       1
H               5.56471000      1.84921000     17.27590000     -0.00409198     -0.00387819      0.00046054       1
O              13.40360000      7.24459000     11.23220000     -0.00280544     -0.00090687     -0.00561344       8
H              14.08240000      8.11452000     12.68840000     -0.00449905      0.00394441      0.00084190       1
H              14.82720000      6.35383000     10.54790000      0.00425072     -0.00186154      0.00326839       1
O               3.37307000      6.42320000      1.72893000      0.00135533      0.00599038      0.00757573       8
H               4.92635000      7.09225000      2.44104000     -0.00294631     -0.00529383     -0.01148970       1
H               3.53671000      4.65191000      2.10452000     -0.00425030     -0.00096914     -0.00448928       1
O              17.13890000      5.22655000      0.39803300     -0.00066675     -0.01523680      0.00948173       8
H              17.12210000      3.81643000      1.62277000      0.00303621      0.02109670     -0.01424730       1
H              15.90720000      4.67560000     -0.80724500     -0.00890573     -0.00304621      0.00069932       1
O               3.06146000      3.02324000     12.60910000      0.01174890      0.00461747     -0.01117590       8
H               4.62710000      2.11738000     12.80990000     -0.00243479     -0.00044092     -0.00459062       1
H               2.15346000      2.04651000     11.36180000     -0.00083461      0.00343145      0.00322772       1
O              13.75430000      9.85568000      1.88622000      0.00475356      0.00304672      0.02288540       8
H              14.74770000      9.87645000      3.45963000     -0.01209620      0.00406558     -0.02103910       1
H              13.90300000      8.13951000      1.36498000      0.00576215     -0.00849937     -0.00253435       1
O              23.38620000      7.87113000     18.00600000     -0.00823621     -0.01089840     -0.00975441       8
H               0.64845100      6.99102000     17.76250000     -0.00719552      0.01948520     -0.00945199       1
H              22.21950000      6.66150000     18.77880000     -0.00455368     -0.01096230      0.00696791       1
O              17.03510000     13.56680000     20.67140000     -0.00478483     -0.00410989     -0.00039156       8
H              16.98930000     13.08410000     22.41810000      0.00407161      0.00277178      0.00570077       1
H              18.78130000     13.49060000     20.14690000     -0.00478870      0.00224890     -0.00286170       1
O              22.42760000     13.05440000     12.45070000     -0.00119584     -0.00560795     -0.00114900       8
H              24.00340000     13.68010000     11.79620000     -0.00214238      0.00176032      0.00117579       1
H              22.49770000     11.18580000     12.10490000      0.00451915     -0.00314869      0.00505258       1
O              12.73240000     22.32800000     13.65880000     -0.00449800      0.00535841     -0.00007941       8
H              13.25570000     24.00380000     14.11150000     -0.00115100      0.00358851     -0.00050346       1
H              13.93860000     21.30390000     14.65270000     -0.00588130      0.00031914     -0.00239028       1
O              10.56290000     20.00390000      9.37192000      0.00692230      0.00437143      0.00056872       8
H               9.82846000     18.60140000     10.26780000      0.00267201      0.00336358     -0.00186149       1
H              11.71530000     20.75810000     10.58250000     -0.00424067      0.00657540      0.00494436       1
O               1.11633000      8.36330000      6.21545000     -0.01508870     -0.00817392      0.01763220       8
H               1.65798000      7.77969000      4.61593000      0.00541633     -0.00154048     -0.01497860       1
H               1.59802000     10.06940000      6.44217000      0.00389544      0.01078420     -0.00029046       1
O               8.91573000     15.82370000      7.36977000     -0.00630922      0.00835505     -0.00355422       8
H               9.92088000     14.48230000      6.67633000      0.00445985     -0.00448204      0.00065597       1
H               9.66271000     17.37800000      6.67340000     -0.00660833     -0.01833450      0.01115910       1
O               8.44224000      6.19117000      1.38976000     -0.00092217      0.00380835      0.00164070       8
H               9.10885000      7.86052000      1.59551000      0.01041180      0.00282229      0.00500118       1
H               8.70586000      5.31144000      2.95062000      0.00390723     -0.00080038     -0.00133230       1
O              19.91720000      6.51263000      5.57250000     -0.00198151      0.00385980     -0.00160649       8
H              20.14230000      4.73450000      5.79091000      0.00033551     -0.00533272      0.00404133       1
H              21.27290000      7.22537000      6.54284000      0.00417880      0.00098718      0.00132834       1
O               7.28479000     21.00520000     15.44430000     -0.00050287      0.00839855      0.00347623       8
H               7.28975000     19.22240000     15.85390000      0.00347977     -0.00342832     -0.00275528       1
H               8.99667000     21.59090000     15.27600000      0.00458250     -0.00247868     -0.00274168       1
O              24.15620000     24.61170000     22.13660000     -0.00497520      0.00432520      0.00378387       8
H              24.02580000     25.66280000     20.66320000      0.00653862     -0.00046564     -0.00391370       1
H              23.52870000     23.02140000     21.56670000     -0.00089747     -0.00681442      0.00221320       1
O               1.43734000     14.99330000      5.79642000     -0.00086851     -0.00220257      0.00727980       8
H               2.26733000     15.96250000      7.10095000     -0.00774802     -0.00314326     -0.00085342       1
H               2.77229000     14.40170000      4.69936000      0.00034367      0.00126297     -0.00061109       1
O              12.46370000      9.39298000     19.96410000      0.00168477      0.00003613     -0.00020783       8
H              13.51290000      8.23819000     20.88510000      0.00045817      0.00154192      0.00066401       1
H              13.55370000     10.81510000     19.61560000     -0.00346881     -0.00250894      0.00239450       1
O              21.93080000     20.93280000      4.41463000     -0.00638050     -0.00242653      0.00087852       8
H              22.88340000     21.61090000      5.79714000      0.00185134     -0.00209286     -0.00532950       1
H              21.22430000     19.38100000      5.06816000     -0.00071855     -0.00218526      0.00289230       1
O              18.31280000     20.83550000     20.38520000      0.00143564      0.00642557     -0.00074708       8
H              18.09580000     20.18620000     18.70400000     -0.00457108     -0.00332404      0.00142502       1
H              19.66430000     19.91260000     21.18650000     -0.00193213     -0.00248192      0.00208998       1
O              20.40630000     16.07310000      6.51530000      0.00204616     -0.00057116     -0.00171090       8
H              19.68440000     15.20530000      7.95017000      0.00166020      0.00659972      0.00179791       1
H              22.04230000     15.31160000      6.22567000      0.00237280      0.00035313      0.00309180       1
O              15.40210000     19.80640000      4.96052000      0.00006268      0.00744145     -0.00063345       8
H              14.54220000     19.61430000      6.54459000      0.00006082      0.00339042      0.00285558       1
H              15.68010000     21.59690000      4.70398000     -0.00042151     -0.00636831      0.00103176       1
O              16.89870000      7.77653000     16.59870000      0.00400867     -0.00673538      0.00523987       8
H              15.15430000      8.29405000     16.66650000      0.00174541      0.00312431     -0.00101936       1
H              16.86910000      5.95945000     16.54190000     -0.00163545      0.00420700     -0.00073530       1
O               2.96130000     16.41020000     10.97550000      0.00451910     -0.00078665     -0.00577349       8
H               3.54487000     17.98760000     11.67960000     -0.00101228     -0.00168308      0.00117507       1
H               4.44934000     15.49380000     10.42680000     -0.00442407      0.00127396      0.00683620       1
O              12.04360000     16.58110000      2.56237000     -0.00495005      0.00496575     -0.00615751       8
H              13.03950000     17.95900000      3.23172000      0.00367533      0.00015874     -0.00063798       1
H              13.18480000     15.78210000      1.40703000      0.00202905     -0.00925269      0.00612949       1
O              15.24850000      1.09842000      7.97729000      0.00839854     -0.00926517     -0.00781444       8
H              16.13010000     -0.35089100      8.68466000     -0.00118077      0.00759375      0.00100944       1
H              13.80280000      1.30998000      9.00965000     -0.00985182      0.00004555      0.01096660       1
O              22.22250000     18.49050000     23.75210000     -0.00069478      0.00762746      0.00666266       8
H              23.78700000     17.67490000     23.36660000      0.00346251     -0.00213738     -0.00199075       1
H              22.39800000     19.06630000      1.04802000      0.00142356      0.00003005     -0.00916376       1
O              21.84200000     13.16840000     17.76170000      0.00481903      0.00093861      0.00067131       8
H              21.98920000     13.40450000     15.93650000     -0.00108433      0.00031646     -0.00540081       1
H              22.15250000     11.39600000     17.93830000     -0.00148382      0.00922618      0.00449653       1
O              13.37280000     11.58190000     14.55200000      0.00030763     -0.00340893     -0.00613997       8
H               7.79356000     14.93230000     11.11190000      0.00771048     -0.00465211     -0.00515605       1
H              12.95970000     12.63790000     15.97930000     -0.00339303      0.00296599     -0.00414994       1
O               7.35743000      9.60038000     21.81070000     -0.00382202     -0.00136641     -0.00794767       8
H               9.05741000      9.66988000     21.11640000      0.00032196      0.00128512      0.00180024       1
H               7.29075000      8.05001000     22.74870000     -0.00033809     -0.00157894      0.00043583       1
O              16.26260000      1.24203000     16.44300000     -0.00076874      0.01345530     -0.01623790       8
H              16.79860000      2.44716000     15.13110000     -0.00019531     -0.01230830      0.00734212       1
H              17.82100000      0.53455100     17.01530000      0.00269266     -0.00040337      0.00402596       1
O              19.92090000      3.65031000     20.33660000      0.00541287      0.00493635     -0.00195379       8
H              20.22130000      2.53781000     21.74740000      0.00432822      0.00118593     -0.00100472       1
H              18.56820000      4.67763000     20.96440000     -0.00025676      0.00167534     -0.00042593       1
O              18.16590000      4.23284000     12.34840000     -0.00242426      0.00387498      0.00131736       8
H              17.94530000      3.20341000     10.88260000      0.00525293     -0.00140373     -0.00575904       1
H              19.66680000      5.26212000     12.07380000      0.00264591      0.00183852      0.00136441       1
O              13.91020000     11.94140000      8.12174000     -0.00271496      0.00156574     -0.00347265       8
H              13.57530000     10.42420000      9.07736000     -0.00059532     -0.00017198      0.00405001       1
H              15.69630000     11.94020000      7.85881000      0.00203256     -0.00175088     -0.00235433       1
O              18.24790000     24.26650000      1.73654000     -0.00475180     -0.00082322      0.00395606       8
H              19.33050000     22.82800000      1.96396000      0.00329263      0.00164402      0.00125567       1
H              17.11720000     23.87420000     24.82620000     -0.00019646     -0.00496754     -0.00324944       1
O              -0.12090000      1.94592000      3.28097000      0.00989302      0.00510930      0.00538991       8
H              23.80880000      3.52793000      2.54537000     -0.00374546     -0.00383154      0.00316927       1
H              24.55440000      0.82187000      1.89626000     -0.00344037     -0.00421110     -0.01202320       1
O               6.38517000     11.54490000     12.88210000      0.00068305      0.00610117      0.00313453       8
H               7.33937000     10.60130000     11.66510000      0.00140005     -0.00516309     -0.00338435       1
H               5.28866000     10.33500000     13.69100000     -0.00344144      0.00201383     -0.00121104       1
O               0.82167100      1.16516000     16.51750000      0.01576620      0.02733240      0.00173377       8
H               1.72191000      2.10993000     15.10500000     -0.02247590     -0.02106340      0.01972360       1
H              24.71930000     24.04110000     15.83990000     -0.00216338     -0.00929122     -0.00899202       1
O               9.33667000      3.59681000     12.05820000     -0.00885901     -0.00453556      0.00809408       8
H               8.85162000      3.84665000     13.80850000      0.00390761     -0.00480405     -0.00701747       1
H              10.63350000      4.84012000     11.79250000      0.00744451      0.00953112     -0.00145173       1
O               6.06961000     22.06940000      6.85876000      0.00079395      0.00272956      0.00536901       8
H               5.72867000     23.74880000      6.26781000      0.00536156      0.00350264      0.00038070       1
H               7.80437000     22.12180000      7.44753000     -0.00536983     -0.00498513     -0.00028294       1
O              18.95870000     21.96290000     10.19110000      0.00009182     -0.00271102     -0.00590215       8
H              19.71980000     21.03740000     11.57950000      0.00124665      0.00315109      0.00024962       1
H              19.12350000     20.86910000      8.74894000     -0.00044017     -0.00292758      0.00250418       1
O              12.91490000     22.72720000     22.17110000     -0.00286091     -0.00274295     -0.00667541       8
H              14.43160000     22.96360000     21.19020000     -0.00033212     -0.00283334      0.00086167       1
H              11.95520000     21.42990000     21.28820000      0.00421170      0.00684110      0.00918175       1
O               8.14046000      2.63866000      5.99758000      0.00144673      0.00402439      0.00127956       8
H               9.91269000      2.57559000      5.58984000      0.00089097     -0.00296110     -0.00189264       1
H               8.04339000      2.59487000      7.81029000      0.00330050      0.00283981      0.00360314       1
O              18.43380000     13.79860000      1.96680000      0.01964320     -0.01763410      0.00315808       8
H              19.80540000     12.55750000      2.21420000     -0.02123900      0.01601750     -0.00446743       1
H              18.77400000     15.04660000      3.25554000     -0.00108236     -0.00202971     -0.00084554       1
O              22.92270000      7.93510000     12.35540000     -0.00680868      0.00449145      0.02202450       8
H              22.48090000      8.40847000     16.35310000      0.02916560     -0.02183330     -0.01461290       1
H              24.47580000      7.10772000     11.86400000     -0.00888766      0.00590800      0.00195707       1
O               5.06291000     19.91810000     23.41090000      0.00258636      0.00140226      0.00482012       8
H               4.86433000     18.41250000     22.45270000     -0.00707856     -0.00495847     -0.00647638       1
H               3.98525000     19.74430000     24.94090000      0.00870983      0.00282750     -0.01085920       1
O              13.07580000      2.26236000      2.72965000     -0.01019220      0.00266626      0.00739254       8
H              13.65470000      1.40495000      4.22332000      0.00767954     -0.00286932     -0.00213625       1
H              12.37550000      1.02819000      1.60597000      0.00388798     -0.00258593     -0.00148769       1
O               7.09005000      0.38331000     22.48070000     -0.00185370     -0.00729128     -0.00113773       8
H               6.32820000     23.15700000     22.23280000      0.00101414      0.00566863      0.00663513       1
H               8.62075000      0.05905600     23.38940000      0.00057018     -0.00059827     -0.00173731       1
O               6.54769000      7.68083000      8.81953000      0.00082759      0.00778869      0.00212477       8
H               5.90320000      6.34266000      9.85016000     -0.00261122     -0.00211259      0.00135056       1
H               7.63238000      6.86944000      7.63353000      0.00303071     -0.00198326     -0.00148325       1
