192
Lattice="24.87731 0.0 0.0 0.0 24.87731 0.0 0.0 0.0 24.87731" Properties=species:S:1:pos:R:3:force:R:3 TotEnergy=-1103.39321 cutoff=-1.0 nneightol=1.2 pbc="T T T"
O        1.00119000      19.66566000      16.79922000      -0.07479380      -0.01547140       0.02330330
H       23.95030000      20.48372000      16.73922000       0.07240370      -0.04746220      -0.00639003
H        0.85709000      17.64233000      17.12982000      -0.00487854       0.06190160      -0.02313630
O        1.47288000      20.94019000      22.51608000      -0.04200220      -0.04201240       0.00264259
H        2.49628000      22.30399000      22.85070000       0.03754000       0.03337610      -0.00827377
H        1.40168000      20.38349000      20.77883000       0.00911500       0.01201220       0.00026502
O       15.52180000       1.29568000      16.44290000      -0.02072660       0.02243620       0.05471220
H       15.62500000       2.71052000      17.77020000       0.00864826      -0.01295430      -0.03222430
H       14.59450000       0.10071100      17.59010000       0.01875270       0.00224670      -0.02975940
O       18.42331000      15.91196000      22.43271000       0.04041380       0.02104640       0.01433180
H       20.22440000      15.32037000      22.09042000      -0.04140110       0.00781508       0.01044160
H       18.57008000      17.43465000      23.68621000      -0.00071318      -0.02925310      -0.03234080
O        5.22787000       8.06119000      19.21740000       0.05698490      -0.01118010      -0.03624280
H        6.76886000       8.62519000      20.15470000      -0.02461870      -0.00167077      -0.00956690
H        5.96776000       7.82589000      17.42420000      -0.02155850       0.00434748       0.03755430
O       18.83132000      10.43030000       7.25549000      -0.04182140       0.01347600      -0.03502850
H       18.00160000      12.09040000       7.45767000       0.01709910      -0.00638639       0.01261970
H       17.73643000       9.80778000       5.84536000       0.01350700      -0.01032130       0.02522790
O       22.36569000       4.78249000      13.50190000       0.11884800       0.25116200       0.02298700
H       24.18789000       4.47719000      13.77350000      -0.01034010       0.01294710      -0.00443382
H       21.88459000       3.33739000      13.43470000      -0.10629900      -0.26357100      -0.01546460
O        0.62536200      17.27412000       7.77883000       0.03808970       0.03158760       0.06549760
H        1.99540000      17.69032000       9.29792000      -0.01835150      -0.03142190      -0.03370380
H       24.78413400      18.97482000       8.05838000      -0.01761430      -0.00984933      -0.02169960
O        8.15189000      14.84502000      17.75840000      -0.00019989      -0.02339680       0.02634850
H        7.54949000      14.27102000      16.14110000      -0.01258140      -0.00294663       0.00422771
H        7.86049000      13.50682000      19.11470000       0.00269739       0.02787730      -0.02842320
O        9.31400000      20.76472000      24.54642000       0.02604910       0.03220420      -0.00243386
H       10.81620000      21.85102000      24.28742000      -0.01088570      -0.01499740      -0.00141443
H        9.63815000      20.21262000       1.39671000      -0.01422550      -0.01131450      -0.00444026
O        8.85361000       3.75614000       8.36560000      -0.02842660      -0.11459700      -0.14706300
H        9.80711000       4.31521000       6.85549000      -0.00828955      -0.01439980       0.01627770
H        9.25311000       4.81369000       9.48866000       0.04277760       0.12024100       0.13151200
O       11.42141000       4.89689000       3.55028000       0.02346230      -0.01077600      -0.02483080
H        9.69041000       5.16739000       3.16728000      -0.02025880       0.00017552      -0.00683567
H       12.13941000       4.07599000       1.98338000      -0.00283649       0.00845023       0.03132870
O       12.36810000      14.90132000       9.14901000       0.00230367      -0.05527710       0.01115440
H       12.67280000      15.21192000       7.38581000      -0.00330980      -0.00177024      -0.01161670
H       12.03430000      12.98452000       9.20321000       0.00578892       0.05611700       0.00476808
O        4.64089000      13.84280000      13.49469000      -0.06029620      -0.02206220      -0.01835630
H        2.91089000      14.14310000      14.27339000       0.03529560      -0.00849725       0.00605342
H        3.98419000      12.87270000      11.98119000       0.02797970       0.01700940       0.02671160
O       23.93944100       2.30236000       2.85652000      -0.00238466      -0.04878320      -0.01319920
H       24.19565200       0.36101200       2.67751000       0.00102133       0.05742490       0.01104600
H        0.52670600       3.08799000       3.57196000       0.00658803      -0.00840230       0.00528273
O       18.59552000      24.27050000       8.07669000       0.00205772       0.06532160      -0.01491960
H       18.13832000       1.15609000       7.24679000       0.01738150      -0.05522350       0.01213630
H       17.10682000      23.29360000       8.14799000      -0.01805940      -0.01149150      -0.00668937
O       15.10602000      12.28740000       0.08909000       0.02210370       0.03088860      -0.02313670
H       14.42182000      10.97570000      23.90700000      -0.00706587       0.00097069      -0.00890606
H       15.95752000      13.47060000      23.65870000      -0.01499150      -0.02752690       0.03887580
O        3.10351000      17.34288000       3.44631000      -0.01258860       0.04001610       0.08490880
H        2.06171000      17.15508000       5.26731000       0.03291830      -0.00142954      -0.05685440
H        2.40741000      16.24678000       2.27651000      -0.01556050      -0.03193910      -0.02365060
O       21.02028000      20.35980000      14.58119000       0.00210866       0.08221210      -0.01342030
H       20.66908000      22.35540000      14.13779000       0.00733798      -0.06173920       0.00727862
H       19.56448000      19.88420000      15.49959000      -0.01718750      -0.01054690       0.00911543
O        6.30098000       4.33991000       2.28267000       0.01752930       0.00966184      -0.01648170
H        5.12258000       4.18581000       3.64147000      -0.00695791      -0.00723151       0.00025510
H        6.21028000       2.94721000       1.04962000      -0.01558720       0.00986159       0.02292360
O        4.22229000      18.28050000      11.36661000      -0.00326011       0.05459510      -0.06680550
H        5.61829000      18.60870000      10.04941000      -0.01694240      -0.02846760       0.05599590
H        4.34719000      17.21310000      12.81961000       0.02576390      -0.01483490      -0.00804532
O       11.41741000       4.39121000      13.75058000      -0.04539020      -0.02509480      -0.02772280
H       12.00161000       5.97433000      14.13888000       0.03761020       0.04869010       0.01673180
H       12.62451000       3.17564000      14.14948000       0.02413780      -0.02177520       0.01216830
O        5.00793000       0.25995300      24.30753400       0.06192550      -0.10810100       0.16524800
H        5.00979000       1.10868000      22.95244000      -0.00313192       0.09153560      -0.16006000
H        6.85037000      24.52552500      24.54006700      -0.05561710       0.00140397      -0.00849551
O       18.89779000       3.38656000       4.40689000       0.01186230       0.00512614       0.00493363
H       18.18979000       5.08765000       4.30539000       0.00723082      -0.00526162       0.00152423
H       20.75889000       3.44768000       4.15409000      -0.02404970      -0.00114808      -0.00185860
O       23.37442000      11.32398000       6.03609000      -0.02671520       0.01973930      -0.00924460
H       21.30116000      11.04958000       5.96439000       0.06432090       0.02179620       0.02042590
H       24.01804100      13.08778000       6.35159000      -0.02823130      -0.03488570      -0.00708237
O        9.50892000       9.81509000      10.51960000      -0.03787050       0.04433180      -0.03931410
H        8.29570000      11.22749000       9.33860000       0.03699210      -0.05884040       0.05127930
H        8.52835000       8.86319000      11.79170000      -0.00403706       0.02330520      -0.01914570
O        9.02381000      20.01940000      19.17740000       0.00719096       0.03724910      -0.12505400
H        9.04121000      18.29340000      18.88370000      -0.00521932      -0.04832580      -0.03021340
H        9.10811000      19.92540000      20.80540000       0.00029195       0.01201550       0.15209700
O        6.96639000      10.53049000       1.93558000      -0.03347000       0.09476380       0.01032020
H        6.94409000       8.82019000       1.73538000      -0.02077020      -0.05828980      -0.00115305
H        5.18929000      11.45489000       2.01578000       0.04465700      -0.04267070      -0.00351984
O       12.86390000       9.59099000      21.03140000      -0.00863746       0.00303362       0.02345310
H       12.99840000      10.63499000      19.53360000       0.00963317      -0.00559987      -0.00727167
H       13.85530000       8.06679000      21.09500000       0.00701296      -0.00139896      -0.02117530
O        4.62166000      22.99542000      16.80470000       0.00121481       0.05036230      -0.00789527
H        3.15104000      22.02032000      16.48060000      -0.01316350      -0.02712350       0.00068503
H        6.05583000      21.97932000      16.78240000       0.02178750      -0.02409030       0.00617677
O       24.68183400      21.21810000       2.60039000      -0.03712870       0.02981980       0.01541000
H        1.14373000      20.19780000       3.17486000       0.02820970      -0.02879490       0.00670006
H        0.22282100      21.49490000       0.89968100       0.00493795      -0.00202229      -0.03286310
O        2.55616000       2.62841000      13.63980000       0.00179790      -0.02673820      -0.00298862
H        2.38138000       1.32149000      12.29140000      -0.00206446       0.02156140       0.00472890
H        3.06205000       1.49688000      14.99140000      -0.00104181       0.00910690      -0.00040841
O       16.06172000       5.23088000      20.24182000       0.06542500      -0.00095013       0.02710080
H       18.15452000       5.84538000      20.15982000      -0.07728800      -0.02656060      -0.00048374
H       15.77832000       4.18248000      21.82892000       0.01504300       0.02373680      -0.02492220
O        3.71874000       4.33938000       7.32811000      -0.01819340      -0.08464800       0.01841240
H        5.44780000       3.55198000       7.35881000      -0.01968440       0.02502330       0.00747771
H        2.71275000       2.68098000       8.07551000       0.03736030       0.06217100      -0.02695870
O       12.70912000      15.59819000       4.00929000       0.10280900      -0.08110750      -0.04765330
H       12.93072000      14.21739000       2.53162000       0.01896770       0.04122830       0.04912190
H       11.08982000      15.82399000       3.63437000      -0.10855600       0.04002510      -0.00651039
O       14.01040000       9.04829000      13.91020000       0.00788570      -0.02163520      -0.07645730
H       15.82930000       8.44499000      13.28920000      -0.03530860       0.02352440       0.02423200
H       13.17820000       9.12729000      12.14800000       0.01169970       0.00513367       0.04924520
O        6.28851000      12.98431000       6.87062000      -0.00217657      -0.05719590       0.00600474
H        7.24361000      12.13961000       5.46199000      -0.02329330       0.01574640       0.02301050
H        4.96371000      11.64621000       7.44131000       0.02800460       0.03314580      -0.02038540
O        3.91842000       2.04859000      19.76250000      -0.01716750       0.06817820       0.02780490
H        4.45822000       0.98383200      18.51550000       0.01670280      -0.05724920      -0.03799690
H        4.27662000       3.69799000      19.02350000      -0.00199851      -0.00271537       0.01517900
O        2.58401000       9.79611000       8.89519000       0.01952560      -0.02069220       0.01429160
H        2.54081000       7.97551000       8.71659000       0.01878570      -0.00023566      -0.00103346
H        0.84591000      10.08491000       8.71549000      -0.03077560       0.02052420      -0.01236420
O       16.64950000      19.18770000       5.30839000      -0.01336150      -0.09885970       0.02089570
H       17.61490000      18.08820000       6.75789000      -0.03496220       0.03608280      -0.04902470
H       15.26250000      17.74870000       4.63059000       0.04519850       0.05652200       0.02708010
O        2.11961000      24.48290200       9.49039000       0.02407030      -0.05120480      -0.00940298
H        3.25421000      22.87495000       9.55939000      -0.03794100       0.05085990      -0.00120156
H        0.55331000      23.91686700       8.60129000       0.00997818      -0.00508796       0.01349420
O       18.65149000       8.53571000      12.95699000       0.09248980      -0.03245970      -0.05253650
H       19.68379000       6.97421000      13.50069000      -0.02669820       0.03587410      -0.00862775
H       19.82809000       8.92494000      11.33899000      -0.05544700      -0.00648808       0.05480110
O       16.76592000      17.10712000      17.36463000       0.00802061      -0.01786560       0.08307810
H       17.50074000      16.62472000      19.31886000      -0.02699830       0.01968150      -0.06969370
H       15.12450000      16.20702000      17.41832000       0.01973140       0.00342575      -0.00882257
O        7.04328000       6.48581000      14.22581000       0.00234724       0.05112700       0.02149610
H        8.64308000       5.76801000      13.80961000      -0.00159295      -0.03119520       0.00164395
H        5.58148000       5.58861000      13.82741000      -0.01563820      -0.02720940      -0.01711700
O        9.58053000      23.71975000      11.92650000       0.11676700       0.02787730      -0.09652250
H        9.08604000       0.26858300      10.96620000      -0.00611231       0.01615760      -0.00265275
H        8.42709000      23.25259000      12.96150000      -0.11062500      -0.03753840       0.09465640
O       14.46032000      22.74623000      24.07119000       0.01836960      -0.00321546      -0.05613140
H       14.71622000      22.70246000      21.84919000      -0.00556861      -0.01416130       0.07846890
H       15.81852000      21.80703000       0.09968000      -0.01604100       0.01324370      -0.02539490
O       12.88690000      13.10761000      16.79682000      -0.00995961      -0.03291780      -0.02483070
H       11.07020000      13.48901000      16.66847000       0.01781610       0.00411148       0.00828865
H       13.16730000      11.69411000      15.48691000       0.00387100       0.02813690       0.02533470
O       22.12310000      16.21710000      11.98500000       0.03646920      -0.07484660      -0.04856850
H       21.84270000      17.82550000      12.50520000      -0.01235080       0.07131050       0.02629910
H       23.19430000      16.35200000      10.42350000      -0.01827420      -0.00399397       0.02524310
O       14.26140000      22.03450000      19.07734000      -0.05550990       0.03078340       0.01912360
H       12.51160000      21.39500000      18.81699000       0.01238230       0.00244893       0.00636092
H       15.30890000      20.86420000      18.32868000       0.03505730      -0.04219270      -0.02120520
O       23.10570000      21.71659000       7.50029000      -0.07072830       0.04179110      -0.02058400
H       21.16110000      22.49149000       7.45359000       0.06071960      -0.02200150       0.01676500
H       23.37720000      21.88429000       5.67529000       0.00696690      -0.00878322       0.00576388
O       15.66551000       7.75511000       3.76939000       0.18879300       0.09596200      -0.00555368
H       15.69877000       9.24659000       2.68717000      -0.00470204      -0.01270770       0.00120228
H       14.21211000       7.11191000       3.77232000      -0.17894500      -0.07631460       0.00046883
O       19.52040000       0.45891000      13.21200000      -0.01699190      -0.00430238      -0.00014947
H       18.90410000       0.40111000      11.40670000       0.00542441      -0.00295921       0.03573940
H       18.12480000       0.71981000      14.51430000       0.01323120      -0.00230888      -0.02955790
O        0.18146300      14.72290000      16.17809000      -0.01568840      -0.02267740       0.06596650
H       24.10478800      13.99830000      17.84159000       0.02326660       0.01951580      -0.06075900
H       23.92912300      14.93700000      14.76249000      -0.01619150       0.00290563      -0.00028050
O       19.03329000      20.03889000       0.72588600       0.01458170      -0.03753410       0.02531300
H       20.91029000      20.10859000       0.76097000      -0.02862220       0.00030083       0.00608807
H       18.47239000      18.98299000       2.28394000       0.01453600       0.03764810      -0.02311130
O       22.26600000      12.43680000      20.47962000      -0.08787610      -0.01194190      -0.06932040
H       23.71580000      11.40900000      20.67272000       0.01982870      -0.02272810       0.00437085
H       20.85370000      11.41490000      19.21642000       0.07177360       0.04003060       0.06216480
O        8.46871000      18.14289000       3.83477000       0.08618940       0.03571920       0.05973250
H        6.79151000      18.05379000       3.60923000      -0.08943060      -0.01199470      -0.01524160
H        8.66281000      19.02469000       5.58475000       0.00037056      -0.03006690      -0.04045690
O        9.27341000      19.50172000       8.80609000       0.07110490       0.02212460       0.04136720
H       10.90170000      18.58742000       9.53659000      -0.06275820       0.01592990      -0.02859300
H        9.70827000      21.28952000       9.45829000      -0.01892030      -0.03875170      -0.01206600
O        1.77274000      12.66429000       1.58203000      -0.06892430      -0.05302490      -0.02760970
H        0.06155600      12.09709000       2.36620000       0.05281960       0.01923650      -0.00019049
H        1.44004000      11.63699000      24.83345900       0.02351670       0.02631820       0.02659360
O       17.99033000      15.62378000       9.07143000      -0.10734300       0.00044545      -0.03861890
H       16.18632000      15.56790000       9.82505000       0.03683800       0.00015559      -0.02873530
H       18.88702000      15.45336000      10.50790000       0.06031220      -0.00363700       0.06319580
O       21.09023000       6.70778000      18.97970000       0.05748090      -0.04692930       0.01891370
H       22.47665000       5.58760000      20.04730000      -0.05334900       0.04234400      -0.03289020
H       21.51192000       6.30748000      17.19490000      -0.00819301       0.00256263       0.02285170
O        1.55929000       9.76231000      21.90537000      -0.01577000      -0.04960850      -0.01971530
H        0.65529000       8.12621000      21.59758000      -0.00600376       0.02650800       0.02639110
H        2.96799000       8.97451000      20.94675000       0.01263160       0.03170090       0.00057856
O       24.74630000       4.62094000      22.49519000       0.01961750      -0.03879450      -0.01752550
H       24.77320000       3.94703000      24.18029000      -0.01404950       0.00964919       0.01432560
H        0.79729000       3.17573000      21.71649000      -0.00834896       0.02579430      -0.00449205
O       15.14160000       2.71589000       0.47978000       0.02102490      -0.01282670       0.01750370
H       16.51770000       2.77889000       1.81798000      -0.02723330      -0.00354876      -0.02987580
H       14.89170000       0.86499000       0.07648000       0.00356779       0.01581190       0.00471371
O        8.36021000      11.66080000      21.99820000       0.03184320      -0.00794767      -0.01611750
H       10.08671000      11.08810000      22.35650000       0.00378474       0.00765604      -0.03148820
H        7.90171000      11.12360000      23.61650000      -0.04242290       0.00370518       0.04116170
