192
TotEnergy=-1101.69707000 cutoff=-1.00000000 nneightol=1.20000000 pbc="T T T" Lattice="25.15445000       0.00000000       0.00000000      -0.00000100      25.15445000       0.00000000      -0.00000100      -0.00000100      25.15445000" Properties=species:S:1:pos:R:3:force:R:3:Z:I:1
O              12.78830000     21.67450000     18.80650000      0.08234950     -0.05845250      0.14488300       8
H              12.89910000     22.27210000     17.34270000     -0.01685480      0.07300480     -0.19459500       1
H              14.69970000     21.91480000     18.99350000     -0.04103800     -0.01418030      0.02483600       1
O              17.24520000     22.44780000      7.67629000     -0.08161320      0.22015100     -0.02321750       8
H              18.19170000     22.57390000      6.20576000      0.01788240      0.03524420     -0.05109470       1
H              17.79390000     21.03630000      7.92138000      0.07201060     -0.24930100      0.07505930       1
O              17.87190000     17.41390000     22.56820000      0.10992100      0.07295220     -0.04990140       8
H              16.49440000     16.57440000     22.44780000     -0.13802900     -0.07714010     -0.02103570       1
H              17.99180000     17.55230000     24.30480000      0.03066280      0.01065220      0.06573220       1
O              20.71500000      3.73103000     14.24930000      0.02559370     -0.00261187     -0.02363170       8
H              19.51710000      3.32762000     15.52040000     -0.01096040     -0.01030560      0.00243115       1
H              21.42480000      2.21874000     13.33390000     -0.02712260      0.01889040      0.02581450       1
O              17.02040000     14.13120000      6.09443000     -0.09993840      0.04449090      0.06425710       8
H              16.71120000     12.55440000      6.98394000      0.01766390     -0.00569510     -0.01075210       1
H              15.22260000     15.07400000      7.20568000      0.07713870     -0.02768080     -0.05858230       1
O               5.46176000     14.10110000     17.60800000      0.04448860     -0.00777169     -0.01554240       8
H               6.26351000     13.13160000     16.21810000     -0.01609120      0.00241501      0.01227590       1
H               7.12113000     14.76410000     18.29350000     -0.04051920     -0.00164315     -0.00573078       1
O               4.38558000      5.88272000     15.94000000      0.08665870      0.03460550     -0.05510400       8
H               6.77107000      4.76292000     14.64690000     -0.05239320      0.01071800      0.01697880       1
H               4.94277000      7.72326000     15.36730000     -0.02112690     -0.06551300      0.02697750       1
O              25.29170000     23.63510000     20.10620000     -0.00018615     -0.04482070      0.01465280       8
H              23.77950000     24.13290000     19.16960000      0.01030570     -0.01129090      0.01202470       1
H              25.10200000     21.83270000     20.86030000     -0.00292802      0.06144940     -0.03059260       1
O              12.19070000     11.58230000     18.82380000     -0.37989400      0.09167690      0.17032600       8
H              12.00800000     13.84350000     20.14670000      0.00957798     -0.09787050     -0.05672780       1
H              13.59120000     11.57790000     18.39680000      0.36499100     -0.00082235     -0.10279800       1
O               5.65163000     19.78150000     13.15690000      0.11232900     -0.03433070      0.04500130       8
H               6.97161000     18.82020000     14.57650000     -0.06840230      0.03479850     -0.04954770       1
H               7.19417000     20.49560000     12.24740000     -0.04218220     -0.00084363      0.00337171       1
O              17.91960000      9.44489000      6.99120000      0.05763910      0.16096000      0.21251700       8
H              17.64730000      8.35461000      5.94555000     -0.04945020     -0.18575800     -0.17588800       1
H              18.47280000      8.62144000      8.58884000     -0.00898922      0.01064140     -0.03765770       1
O              12.57260000      6.50661000     10.38220000     -0.08615000      0.08788010      0.05676520       8
H              11.60900000      6.90847000      8.95208000      0.00611731     -0.01050340     -0.03929120       1
H              13.74240000      5.34414000     10.51650000      0.07796370     -0.08186060     -0.02245480       1
O               3.69889000     14.61250000      9.77072000     -0.12663200     -0.13420900     -0.02176160       8
H               4.12190000     12.73720000      9.78362000      0.00356322      0.05545950     -0.00367022       1
H               4.95697000     15.61750000      9.92124000      0.12595400      0.08315490      0.02391340       1
O              24.00780000      2.03417000      5.84982000      0.02059380      0.00046784      0.06301100       8
H              24.77360000      0.43610700      6.36846000     -0.00219193     -0.00526985     -0.01933190       1
H              24.22470000      2.74206000      7.62075000     -0.01488600      0.00587312     -0.04486680       1
O               0.93996000      2.69689000      0.92141000      0.16171800     -0.08369300      0.21668900       8
H               0.22997100      3.05775000      2.70033000      0.01818860     -0.01213520     -0.04293000       1
H              -0.09747200      3.21420000     -0.08010000     -0.18095100      0.08750730     -0.17405500       1
O               0.10057300     21.82980000      0.36685400      0.03199830     -0.00351953     -0.03859130       8
H               0.94022700     23.58330000      0.68422000     -0.01854950     -0.05456230     -0.02404350       1
H               0.76654200     20.77220000     -1.23028000     -0.00974904      0.05395350      0.06847360       1
O              19.15750000     23.69560000     18.58240000      0.02006680      0.00932971      0.04670470       8
H              18.98700000     25.39450000     17.99600000     -0.00511490      0.00322398     -0.00892504       1
H              19.63720000     24.04880000     20.40170000     -0.01463960     -0.01283410     -0.03525590       1
O              17.37290000      3.57733000     24.40290000      0.01716300      0.04085430      0.02184820       8
H              16.30340000      2.27118000     24.07900000     -0.03866340     -0.05077990     -0.00144307       1
H              18.24130000      3.74619000     22.87860000      0.02898610      0.01406010     -0.01485860       1
O              12.31340000     16.73570000     24.50960000      0.07092880      0.02575640     -0.03347790       8
H              12.61820000     15.78750000     25.92630000      0.00716382     -0.03213730      0.03396540       1
H              10.66310000     16.67080000     24.05510000     -0.07858560      0.00735694     -0.00745836       1
O               6.95889000     17.76570000     24.53660000     -0.01069410      0.05879710     -0.00916176       8
H               0.57311000     16.69260000     18.42380000      0.01922060     -0.02839290      0.00073382       1
H               6.86792000     19.91110000     23.37050000      0.02029140     -0.08909600      0.05725870       1
O              12.48170000     22.43940000      6.17082000      0.06563450      0.00843424     -0.02511240       8
H              11.42190000     22.50670000      7.50547000     -0.05914480      0.00546846      0.05281960       1
H              14.00210000     23.28670000      6.93983000     -0.01613870     -0.02382660     -0.02527340       1
O              22.21730000      5.15754000     22.11250000     -0.06627330     -0.15676900     -0.10598400       8
H              23.35050000      5.20555000     20.69550000     -0.00548555     -0.00560575     -0.01905690       1
H              22.87240000      6.33726000     22.91570000      0.07034890      0.16413300      0.11974700       1
O               1.62535000     17.57170000     20.94470000     -0.05821980     -0.01802630      0.00075979       8
H               1.48574000     16.45590000     23.21150000      0.00194994      0.00306838     -0.02427650       1
H              -0.24719300     17.59240000     20.68130000      0.01236460      0.00739455      0.02786770       1
O              18.98380000     14.03220000     12.26070000     -0.02158300     -0.08548880      0.04309700       8
H              17.64690000     12.64050000     13.29080000      0.06702350      0.06413190     -0.05437680       1
H              20.53020000     12.95040000     11.91250000     -0.04108280      0.01812780      0.00852800       1
O              11.36100000      3.07176000     18.93500000     -0.01746790     -0.11398600     -0.02074690       8
H              10.74620000      4.32189000     19.99460000     -0.01748790      0.01390460      0.03047720       1
H              10.43180000      0.72037900     19.63840000      0.03351580      0.08905820     -0.00987053       1
O               9.55494000     22.09290000     22.12110000     -0.03210330      0.04473880     -0.03994380       8
H               6.15988000     24.19360000     21.06730000      0.04691850      0.04277290     -0.01537040       1
H              10.45110000     22.65870000     20.52120000     -0.02146520     -0.02287470      0.04405160       1
O              13.66350000     10.50190000     13.33540000      0.03554920      0.12473300      0.09389770       8
H              14.36180000      9.00969000     13.14520000      0.02808000     -0.11365500     -0.03847090       1
H              15.01250000     10.93610000     14.85640000     -0.06127480     -0.00473084     -0.04810750       1
O               6.44770000      2.93369000      2.74285000     -0.02356990      0.08689310     -0.01025460       8
H               5.05436000      1.96949000      2.37733000     -0.05549370     -0.00951756     -0.01866670       1
H               7.36918000      1.60983000      3.24421000      0.07573640     -0.06246310      0.02336760       1
O              15.10250000     11.98220000      1.11073000     -0.01116010     -0.00162989      0.03098510       8
H              15.53570000     12.68660000      2.84906000     -0.00646442     -0.01791470     -0.03371310       1
H              14.04920000     10.42060000      1.34184000      0.03098920      0.02196620      0.00813632       1
O              17.44270000      9.92378000     18.12630000      0.02822530      0.01552030      0.00789113       8
H              18.03320000      8.36552000     17.22240000      0.00237905      0.03113450      0.03899610       1
H              18.63700000     10.75140000     19.47080000     -0.03234920     -0.04391640     -0.04867990       1
O              25.82130000     15.42520000      0.22591300      0.15884400     -0.08894040     -0.09108390       8
H              25.04010000     16.61270000      0.91289400     -0.10444300      0.16199600      0.09266710       1
H              24.59180000     14.31900000     -0.19320100     -0.05841120     -0.05925060     -0.02095260       1
O              20.66390000     18.79870000     10.17980000     -0.01289080     -0.04000120      0.04658140       8
H              20.92640000     18.21630000      8.55803000      0.00512972      0.00150093     -0.04908000       1
H              20.09490000     17.06620000     10.79320000      0.00051558      0.03977440      0.00674067       1
O              16.32650000      2.95361000      9.97543000     -0.10348100     -0.05597550      0.01302020       8
H              17.92190000      2.19983000     10.15920000      0.01377720     -0.02341470      0.00428114       1
H              14.67480000      1.25309000     10.34870000      0.08922080      0.07196580     -0.01600510       1
O              21.97290000      6.65710000     10.13670000     -0.00757684     -0.21976700     -0.18281300       8
H              22.04790000      7.86896000     11.03420000      0.02425550      0.24123600      0.17035200       1
H              20.88640000      5.57253000     11.01250000     -0.01478620     -0.02112490      0.01216940       1
O               1.72877000     23.42020000     13.64130000     -0.07412710      0.09200600      0.06708060       8
H               3.01428000     22.38690000     13.41630000      0.08858950     -0.07408100     -0.01869970       1
H               2.20284000     24.27470000     15.30530000     -0.01567290     -0.01899080     -0.04417120       1
O              23.56000000     10.87420000     13.44650000     -0.14576600     -0.13976700     -0.19962800       8
H              24.41300000      9.74917000     14.18200000      0.09668410     -0.13238400      0.08591260       1
H              23.80840000     12.23380000     14.03930000      0.05073250      0.27034200      0.11789700       1
O              24.44490000      6.12640000     17.18750000     -0.06953320      0.02838250      0.00392288       8
H              26.05800000      5.41999000     17.02720000      0.02614670     -0.01495180     -0.02696470       1
H              22.97140000      5.69645000     16.03510000      0.04886820     -0.01137420      0.01640140       1
O               7.08873000     17.05480000      4.47611000      0.02756220     -0.02320640     -0.02077800       8
H               6.18697000     16.27810000      5.79653000     -0.02047930     -0.02336110      0.00443381       1
H               7.11463000     17.08150000      2.37419000     -0.01754630      0.01722510     -0.04787910       1
O              21.99990000     10.63250000     23.65910000     -0.06725510     -0.08105660      0.12531900       8
H              21.48670000     11.93480000     22.73180000     -0.02467370      0.07874890     -0.05834300       1
H              20.07320000     10.51900000     24.90130000      0.09031060      0.00086931     -0.05118440       1
O              -0.48370200     17.21460000      6.59930000     -0.01664220     -0.01313090     -0.03831510       8
H              -0.18089000     19.07010000      6.83069000     -0.00492544      0.01650300      0.00335156       1
H               1.09105000     16.75740000      5.78145000      0.00327968     -0.01109630      0.00445668       1
O               5.31553000      0.80572000     20.19420000     -0.06937630     -0.11458600      0.04316190       8
H               5.77126000      2.57136000     20.61070000     -0.00187864     -0.00331043      0.02653420       1
H               3.54415000     -0.16602600     21.21310000      0.03986600      0.06686310     -0.04780430       1
O              14.16740000      6.73840000      1.97974000     -0.04815470      0.01218740     -0.03031040       8
H              15.23560000      5.77304000      0.84810200     -0.00196919      0.00025159      0.00407933       1
H              11.97360000      7.80068000     -0.49762300      0.05494890     -0.01618730     -0.00230546       1
O              11.94270000     16.79150000      7.45103000     -0.01416990      0.04660600     -0.04785680       8
H              10.85850000     16.63060000      5.85599000      0.03246650      0.00033246      0.04218520       1
H              12.53100000     18.66050000      7.25798000     -0.01274660     -0.04805450      0.00338059       1
O              13.49240000     22.47420000     13.12400000      0.02027840     -0.04477660      0.02982740       8
H              13.79240000     20.65730000     13.55500000      0.01809340      0.02796170      0.00765686       1
H              12.33560000     21.89280000     11.94130000     -0.03846340      0.01630110     -0.03848200       1
O              21.32860000     14.35420000     20.64190000      0.03181670     -0.02099440     -0.06896070       8
H              21.74570000     13.70110000     18.85160000     -0.01777000      0.02585050      0.05220290       1
H              20.20900000     15.79630000     20.56460000     -0.01236400      0.00371118      0.00855501       1
O              19.96120000     17.75950000      1.98276000      0.07520530      0.06689830      0.03191050       8
H              23.22810000     16.73500000      5.25938000      0.01218310      0.02196770      0.01622070       1
H              21.02750000     19.47460000      2.45035000     -0.04956490     -0.07752720     -0.02131870       1
O               9.27188000     24.06430000      2.34348000      0.00796528      0.00062883      0.02085620       8
H               9.99135000     23.36170000      3.87392000      0.00373906      0.01250390      0.00188656       1
H               9.27353000     22.57200000      1.37797000     -0.00293152     -0.01292910     -0.03315930       1
O              20.82530000     23.16840000      3.45910000     -0.00060536      0.01508240      0.02516310       8
H              21.12710000     22.56330000      1.81480000      0.00146815     -0.00373752     -0.02011590       1
H              21.72800000     24.74400000      3.55744000     -0.00425601     -0.00134467      0.00211938       1
O               8.79265000      3.46404000     13.42540000     -0.12242700     -0.02385180     -0.05276930       8
H               9.30292000      4.61084000     12.21700000      0.03177430      0.03633710     -0.03075600       1
H               9.62313000      3.54496000     14.84620000      0.08397670      0.00582588      0.10632900       1
O              16.74380000      4.41981000     18.51700000     -0.02285620     -0.04920690      0.03491850       8
H              16.67000000      3.22983000     20.06840000      0.00244905      0.03985110     -0.04712850       1
H              14.94730000      4.24675000     18.02260000      0.01668290      0.00201516      0.00399859       1
O               1.76269000      9.06776000     21.78280000      0.01544290     -0.09482800      0.09734380       8
H               1.99083000      9.82004000     20.35890000      0.02001040      0.06313810     -0.12276800       1
H               0.78211100     10.04670000     22.81600000     -0.03303330      0.02669350      0.02906920       1
O              11.61930000      7.43932000     22.22480000     -0.05743840     -0.03070780      0.07174280       8
H               9.79902000      7.11520000     22.74700000      0.02477920     -0.00498713     -0.02076720       1
H              11.35190000      8.62211000     20.89580000      0.01463330      0.04342960     -0.01594940       1
O               8.76186000     23.70760000     10.26840000      0.01506380     -0.05583990     -0.06147550       8
H               7.41230000     23.73880000      8.93766000      0.01716080     -0.02734340     -0.01820370       1
H               8.01965000     24.80000000     11.28870000     -0.02789920      0.07092540      0.07781300       1
O               0.33052600     15.84300000     16.29550000      0.00048623     -0.04264770      0.08137760       8
H               1.84804000     14.66390000     16.57380000     -0.00036323      0.03590420     -0.01652910       1
H               0.59683100     17.50760000     15.81720000      0.02763100      0.03551520     -0.04407960       1
O               7.13208000     10.35150000      8.11619000     -0.22405300     -0.16649000      0.11333000       8
H               7.12039000      8.69685000      7.04386000     -0.01593920      0.03750230      0.04546000       1
H               8.27563000     10.85760000      7.27324000      0.23943700      0.12852300     -0.15285700       1
O               1.11321000     22.08880000      7.88399000     -0.18097100     -0.02093950      0.04187580       8
H               0.03958600     22.01650000      9.64034000      0.04829880      0.00951422     -0.06831460       1
H               2.73429000     22.14970000      8.25369000      0.12492100      0.00244193      0.01802870       1
O              10.19770000     16.88160000     17.17300000     -0.12002700      0.00016635      0.17096100       8
H              11.24660000     17.16330000     15.97760000      0.10831200      0.03672980     -0.10667300       1
H              10.28330000     18.11840000     18.73130000      0.00756353     -0.03011380     -0.05810690       1
O              21.45790000     24.20510000     12.25130000     -0.08178680     -0.01326470     -0.05525320       8
H              22.79780000     23.80810000     13.18020000      0.08177220     -0.02182870      0.05169540       1
H              20.67490000     22.52430000     11.89910000      0.00484993      0.03093570     -0.00079648       1
O              10.64230000      7.05743000      5.25675000     -0.02525900     -0.05258280     -0.04069800       8
H              12.02800000      5.80428000      3.94462000     -0.02740950      0.05893180      0.02532340       1
H               8.85209000      6.51123000      4.73739000      0.05393070      0.00376014      0.00818849       1
O               6.17524000     21.96420000      6.34561000     -0.00919286      0.01729250     -0.03925670       8
H               5.98116000     22.97770000      4.69374000      0.00677503     -0.03368200      0.05111820       1
H               7.34498000     18.72230000      5.05201000     -0.00377031      0.06810070      0.01480450       1
O              17.54960000     23.59750000     24.27740000      0.09566800      0.10365600     -0.20852600       8
H              17.68990000     22.15760000     23.47340000     -0.00447334     -0.10558200     -0.03332870       1
H              16.97740000     23.64780000     25.69890000     -0.09401750     -0.01072550      0.23576000       1
O              13.40890000     16.67400000     12.49870000      0.00239900     -0.03825080      0.02103680       8
H              12.04880000     15.81020000     11.50120000      0.03405030      0.01089930      0.01745700       1
H              14.41600000     15.35830000     13.49570000     -0.03459330      0.03306330     -0.03674110       1
O               5.88026000      5.57071000     22.52820000      0.04847070     -0.02352650     -0.28793700       8
H               4.32989000      6.21686000     22.43750000     -0.09037230      0.04677900     -0.02810430       1
H               6.03126000      5.53145000     24.02260000      0.04732770     -0.02688850      0.31446200       1
O               8.23272000     10.11780000     14.01420000     -0.11367500     -0.01972390     -0.02236910       8
H               7.34919000      9.83835000     12.31970000      0.06063820      0.01546800      0.03767550       1
H               9.85576000     10.51130000     14.49060000      0.05235050      0.00776810     -0.01972680       1
