192
TotEnergy=-1102.22093000 cutoff=-1.00000000 nneightol=1.20000000 pbc="T T T" Lattice="25.87453000       0.00000000       0.00000000      -0.00000100      25.87453000       0.00000000      -0.00000100      -0.00000100      25.87453000" Properties=species:S:1:pos:R:3:force:R:3:Z:I:1
O              20.81310000     21.88380000     13.14190000      0.03857920      0.02049490     -0.04517030       8
H              21.67510000     22.75170000     11.73180000     -0.02935580      0.00656177      0.00004213       1
H              22.46870000     21.61120000     13.85020000     -0.00555749     -0.01979950      0.03022060       1
O               1.16654000      4.49947000     13.07370000      0.02544390      0.04487950      0.03162980       8
H               1.58685000      6.22507000     13.80570000     -0.02035950     -0.03938490     -0.01865520       1
H               2.84674000      3.81338000     13.09530000      0.00517169     -0.01250200     -0.01020880       1
O              17.68830000      6.23547000     23.97330000     -0.06718350     -0.06038970      0.04337160       8
H              17.91990000      6.37411000     22.30150000     -0.01623210     -0.01594210     -0.09917210       1
H              18.92360000      7.29712000     24.29490000      0.07871100      0.07409840      0.05766250       1
O              13.08760000     20.30420000     13.94140000      0.00059883      0.00671135     -0.01452550       8
H              13.24790000     21.04980000     12.19900000     -0.00996210     -0.00597976      0.04375650       1
H              14.43210000     21.03480000     14.92990000     -0.00131336     -0.00822658     -0.00290843       1
O              17.79730000     15.68290000     17.44020000     -0.05964390     -0.22322700     -0.01828500       8
H              15.93890000     15.06310000     17.52580000      0.05851200      0.03061610      0.00359245       1
H              17.83660000     17.26490000     17.57490000     -0.00132590      0.19078000      0.01253450       1
O              19.70190000      2.02449000     15.43310000      0.05876080      0.05204580      0.03285600       8
H              19.54960000      3.60026000     16.53930000     -0.01515500     -0.04873870     -0.02914000       1
H              18.15410000      1.49086000     14.83300000     -0.04447240      0.00081134     -0.00791320       1
O              17.59220000     17.61990000      2.99728000      0.17060100     -0.04060050     -0.00863098       8
H              17.64550000     19.05330000      3.87280000      0.01017620      0.07676720      0.04723010       1
H              16.05750000     17.34210000      2.70249000     -0.18206700     -0.03380390     -0.04018180       1
O               9.18191000     20.22030000      5.60884000      0.23735600     -0.09071890      0.15553800       8
H               8.96464000     18.47740000      6.12036000      0.00171011      0.00486252      0.00000196       1
H               7.95731000     20.57680000      4.79316000     -0.23736300      0.07525210     -0.15545100       1
O              12.41740000     18.44670000      1.46797000      0.00644827     -0.01736480      0.00530210       8
H              11.74030000     19.22480000      2.91122000     -0.02029730     -0.01685620      0.05108040       1
H              12.35590000     20.03680000      0.74328800      0.01089810      0.03014190     -0.05710370       1
O              23.24670000     25.43100000      8.55754000      0.00820469     -0.06811740     -0.03508240       8
H              23.05390000     24.19220000      7.08407000      0.00796614      0.03737980      0.03798960       1
H              22.07940000     26.71830000      8.21735000     -0.01616030      0.02608960     -0.00363113       1
O               0.20019900     20.31670000     25.77070000      0.14128700      0.35207800     -0.01959300       8
H              -0.32402600     18.93620000     25.68050000     -0.11786600     -0.32500900     -0.02826990       1
H               1.12113000     20.88380000     24.16020000     -0.02519940     -0.02962790      0.04369720       1
O              24.44030000      9.48566000     21.80570000      0.01741140      0.00411564      0.06226310       8
H              24.64110000      8.85444000     23.62430000     -0.00343367      0.04272510     -0.02639060       1
H              24.02210000      7.87309000     21.31440000     -0.01363250     -0.04595660     -0.04095390       1
O              23.22700000     -0.81335300     18.61000000      0.00240772     -0.02285900     -0.10686100       8
H              23.50530000      0.47047400     19.70750000      0.01084800      0.05008420      0.03884810       1
H              23.28660000      0.09492500     16.82870000     -0.01251560     -0.03180240      0.06442910       1
O               6.27174000     12.40660000     18.14910000      0.02610070      0.02206250      0.06748630       8
H               6.68596000     12.97410000     20.05330000     -0.01492820     -0.01543760     -0.06661890       1
H               6.72500000     10.65120000     18.01200000     -0.00596537     -0.00438944      0.00175342       1
O              12.30020000     12.61870000      1.20960000      0.02706380      0.01337890     -0.01488640       8
H              10.60650000     12.01220000      1.40098000     -0.00861091      0.01129510      0.00227212       1
H              12.32490000     14.37650000      0.57778000     -0.00824866     -0.02533490      0.01480320       1
O              18.26000000     21.21780000     17.16120000      0.00327180     -0.11607600      0.17520900       8
H              19.95680000     21.17140000     18.13840000     -0.05293170      0.00093944     -0.02528730       1
H              18.67160000     22.24130000     16.01370000      0.04492700      0.11619200     -0.13956000       1
O               6.93212000      1.62183000      0.70591400     -0.22079000      0.05323850      0.10809000       8
H               5.93372000      0.12252000      1.41774000      0.02614920      0.04108720     -0.01583810       1
H               8.21886000      0.93899500      0.15062900      0.19073400     -0.09390810     -0.09424840       1
O               6.75754000     15.42500000     22.82310000      0.04533840     -0.07957500      0.07842730       8
H               5.14175000     14.55650000     23.17860000      0.00318905      0.02089700     -0.00806131       1
H               7.90935000     14.24150000     24.47160000     -0.05030990      0.06091920     -0.06790480       1
O              12.42740000     15.08820000     19.20440000      0.26256600      0.05846540     -0.17957100       8
H              11.99850000     15.61690000     20.55560000     -0.07015020      0.10989900      0.26368700       1
H              11.29430000     14.15860000     18.77830000     -0.19584100     -0.16189000     -0.07526340       1
O              16.00220000     15.54790000      9.12188000      0.02047810      0.03804790     -0.00763088       8
H              16.93470000     15.24930000     10.74330000     -0.01843410      0.02702140     -0.03655500       1
H              16.22440000     17.37030000      8.32547000      0.00485024     -0.06338870      0.04204940       1
O              24.41300000     19.53960000     15.94480000      0.01580580     -0.10367400      0.04484760       8
H              25.47820000     19.47750000     17.54500000     -0.02326910      0.01196190     -0.04005520       1
H              24.02030000     17.46830000     15.86680000      0.01464900      0.08961630     -0.00268972       1
O              24.18540000     25.39380000      0.86989800     -0.05828400      0.12483500      0.05309660       8
H              24.12640000     23.77710000      0.66796200      0.02361400     -0.15230900     -0.03645920       1
H              22.51250000     25.28820000      1.83938000      0.03460570      0.03034960     -0.02025220       1
O              17.17180000     11.84310000      5.40599000     -0.05913740     -0.04974690     -0.05417460       8
H              17.19000000     13.40740000      6.19002000     -0.00659863      0.04221930      0.01478070       1
H              15.37310000     11.67190000      4.55018000      0.06267280      0.01252640      0.03140400       1
O               3.10349000     23.45520000     16.83080000      0.19148600     -0.09745010     -0.00764082       8
H               2.82066000     23.05960000     15.18520000      0.00592129     -0.02066690     -0.06632290       1
H               1.78503000     24.14650000     17.24410000     -0.20896300      0.10820500      0.08006590       1
O              16.95140000      9.55602000     15.53310000      0.04640080     -0.17311500      0.03412220       8
H              15.49810000     10.18620000     15.85890000     -0.15156500      0.04493390      0.03695790       1
H              17.64960000     10.80630000     14.84510000      0.10312400      0.14021300     -0.07880120       1
O               6.48449000      1.06206000     16.78800000      0.00723525      0.03867450     -0.00276687       8
H               4.81546000      1.77233000     16.77560000      0.00334779     -0.00061420     -0.00959908       1
H               6.18559000     -0.29442600     17.87030000     -0.00137371     -0.02769340      0.01349140       1
O              21.83130000     15.00630000      1.06254000      0.06928240     -0.06593740      0.02319670       8
H              20.45690000     13.88930000      1.17255000     -0.00111705     -0.05605140      0.02144390       1
H              20.67090000     16.05080000      0.53074400     -0.06388330      0.12213300     -0.04188140       1
O               8.73414000     14.10980000      7.69300000      0.00351728      0.03152050     -0.03201920       8
H               7.62569000     12.76210000      7.98504000     -0.01684220     -0.02371870      0.01205660       1
H               9.72663000     14.33890000      9.15261000      0.01473810      0.00707377      0.02035750       1
O              24.34680000      3.33086000     22.09960000      0.07298550      0.04999430      0.03178620       8
H              23.67340000      2.00876000     22.98560000     -0.04183180     -0.05074280      0.02695380       1
H              25.77460000      3.54475000     23.43510000     -0.03279160      0.00339400     -0.04786320       1
O               8.56239000     19.20620000     17.58470000      0.03245070     -0.00525343      0.01946660       8
H               8.34672000     20.65050000     16.50250000      0.00911369     -0.00930702     -0.01263490       1
H              10.34900000     18.49430000     17.53670000     -0.04255710      0.02772910     -0.00804701       1
O               3.95510000     20.43050000     12.77530000     -0.02367470     -0.06926120     -0.07800790       8
H               2.47370000     19.29370000     13.20930000      0.03231280      0.02274610      0.00343853       1
H               4.32866000     19.50050000     10.97170000     -0.00749739      0.04533080      0.07335520       1
O              10.73650000      6.23352000     11.74250000      0.13309700     -0.12358100      0.21321800       8
H               9.80964000      6.88942000     10.74340000     -0.17230200      0.12586400     -0.19448800       1
H              12.38970000      6.18098000     11.20380000      0.03497330     -0.00116239     -0.01541300       1
O              24.08000000     12.51610000     11.96380000     -0.06572740     -0.01295850      0.04260210       8
H              22.72070000     11.16360000     11.79770000      0.04449500      0.02777910     -0.00608621       1
H              23.25270000     13.38400000     13.45040000      0.03013780     -0.01461160     -0.02351020       1
O              11.55340000      2.76914000     19.39990000      0.04965090     -0.02242120     -0.00455195       8
H              10.01540000      3.62517000     19.40510000     -0.02670610     -0.00231731      0.01221020       1
H              11.79420000      1.46409000     20.72460000     -0.01937030      0.02508890     -0.00557756       1
O              22.41760000     12.81740000     17.67500000     -0.06032550     -0.00464726      0.01400900       8
H              22.72690000     11.33150000     18.65840000      0.01739520     -0.00340302      0.00295343       1
H              20.53280000     12.94840000     18.10730000      0.04560660      0.01508940     -0.01727770       1
O              14.22310000      1.28602000     13.92930000      0.14784800     -0.03235300     -0.22185300       8
H              14.45150000     -0.51078800     13.97370000      0.00764182     -0.00276418     -0.02457630       1
H              13.44170000      1.33444000     15.22820000     -0.15583900      0.04149760      0.25100100       1
O              12.61890000      1.17119000      3.79556000     -0.07445590     -0.04032990     -0.05863350       8
H              11.04020000      1.76096000      2.80973000      0.04603790     -0.00794046      0.02808300       1
H              13.52250000      2.59309000      4.12640000      0.03460310      0.05440280      0.01729620       1
O              11.08430000     25.68010000     23.97330000      0.00080192     -0.05049870      0.03852280       8
H              12.36780000     25.53240000     25.46200000     -0.04072440     -0.00277412     -0.05230540       1
H               9.93693000     23.76830000     23.73360000      0.04912800      0.04446460      0.01303620       1
O               3.04375000     15.30020000     14.82210000      0.03105690     -0.00016558      0.02982210       8
H               4.34005000     15.32710000     16.26500000     -0.03364050     -0.00759438     -0.04426170       1
H               3.75976000     14.22230000     13.52430000     -0.00362049      0.00630546      0.01307630       1
O              17.01480000      4.14108000      5.94686000     -0.15951700     -0.05960960      0.10431000       8
H              16.40030000      5.72182000      6.73501000     -0.01174740     -0.02663810      0.01714170       1
H              18.08420000      4.99104000      5.16774000      0.16956800      0.08732170     -0.11753100       1
O              22.43730000     11.87450000      7.19075000     -0.09163550      0.04861110      0.03337090       8
H              22.19390000     13.87870000      6.68866000      0.00072525     -0.08650750      0.02360600       1
H              20.44780000     11.25210000      8.55107000      0.08941810      0.04014660     -0.07042530       1
O              18.12080000      0.16190300     24.77080000      0.09668620     -0.10045900      0.09253990       8
H              17.71480000      1.59410000     25.41320000     -0.04564210      0.13145300      0.02976130       1
H              17.65420000     -0.42231700     23.33170000     -0.05114980     -0.02860390     -0.12559600       1
O              16.85280000      5.62640000     18.63540000     -0.06636970     -0.00229023      0.01248020       8
H              14.87160000      5.39464000     18.87590000      0.06990810      0.00044182     -0.00814009       1
H              17.01140000      7.10704000     17.56780000     -0.00027067     -0.00714172      0.00358983       1
O              13.17140000      7.04464000      1.27514000      0.00502694     -0.07799510      0.05713540       8
H              14.66090000      6.64520000      2.35853000     -0.02548210      0.01681870     -0.02909680       1
H              13.28340000      8.61270000      0.59515800      0.01650060      0.06115320     -0.02249120       1
O              13.97360000     23.31800000     10.44990000     -0.10863200      0.19079700      0.07893950       8
H              14.67170000     22.18980000      9.68012000      0.13700800     -0.20537700     -0.11906200       1
H              13.60520000     24.27140000      8.94110000     -0.01561460      0.02170600      0.01200670       1
O               9.76657000     21.00920000     23.08410000     -0.07158240     -0.00802478     -0.06896950       8
H               9.19362000     22.17610000     20.07570000      0.01097220     -0.05004200      0.07142850       1
H               8.12285000     19.80250000     23.17940000      0.06281030      0.04990400     -0.00161364       1
O              18.15190000     24.66880000      4.79486000     -0.07032620      0.07634040      0.04149090       8
H              16.76210000     25.35680000      3.60829000      0.04270150     -0.02613230      0.02445300       1
H              17.55360000     25.89020000      6.39989000      0.03214340     -0.04703780     -0.06644810       1
O               7.44452000     12.98450000      2.20136000     -0.01659280      0.00078758      0.05218760       8
H               6.12380000     11.90430000      2.80458000     -0.01503880     -0.02134770     -0.02943190       1
H               7.65789000     13.45440000      4.01278000      0.02766660      0.02073110     -0.02452590       1
O               1.62922000     14.27690000     22.22130000     -0.09351790      0.01107870     -0.07859680       8
H              -0.02791800     15.36830000     21.55520000      0.07222990     -0.03595950      0.04041770       1
H               1.21408000     12.91950000     20.89770000      0.02162230      0.02204470      0.03944270       1
O              22.48750000      4.36791000     10.70150000      0.01857370     -0.02955330      0.02835990       8
H              24.12950000      3.36557000     10.94290000     -0.04498650      0.03490980     -0.00135721       1
H              21.54050000      4.12317000     12.29980000      0.01590870     -0.00380581     -0.02183240       1
O              21.88200000      6.73355000      6.19284000     -0.00864680     -0.03736810     -0.07424310       8
H              22.39370000      8.32837000      5.68407000      0.01335810      0.04202560     -0.03558770       1
H              21.81560000      7.26188000      7.79000000     -0.00446777     -0.00549317      0.10100300       1
O               4.12697000     20.37330000     21.20700000      0.03083540     -0.03549480      0.14220200       8
H               5.33254000     18.94690000     21.40830000     -0.02433590      0.01671290      0.00601633       1
H               4.04357000     20.40980000     19.58370000     -0.01449520      0.01760690     -0.14886700       1
O               1.25196000      8.70107000      9.20199000     -0.05069350      0.05539240     -0.11648400       8
H               1.84759000      7.19048000      9.44137000      0.04167460     -0.11642300      0.02123400       1
H               1.44904000      9.59179000     10.58370000      0.00921296      0.06174120      0.09118640       1
O              11.35470000     10.63100000     15.68150000     -0.06464480      0.04228630     -0.01042470       8
H               9.62580000     10.60050000     14.81630000      0.04612510     -0.01823700      0.00914095       1
H              10.89460000     12.24480000     16.51630000      0.01630340     -0.02869240     -0.00621521       1
O               6.46291000      2.45173000     11.34080000     -0.02365350     -0.01409800     -0.02567170       8
H               7.39357000      3.47958000     12.50620000      0.01437260     -0.00079158     -0.02183530       1
H               6.85954000      2.44387000      9.48797000      0.00883308      0.01046440      0.04745600       1
O               7.18973000      9.44333000      8.15325000      0.19603400      0.10420200      0.13100500       8
H               6.21821000      8.70164000      7.19798000     -0.14763000     -0.11635400     -0.14678800       1
H               8.95276000      9.24542000      7.40224000     -0.05021100      0.00351223      0.01533050       1
O               7.68630000      6.89799000      3.13216000     -0.01843160     -0.00506618     -0.00409328       8
H               6.38137000      5.75889000      2.23395000      0.06668490      0.02348150      0.01846530       1
H               9.56518000      6.86820000      2.81164000     -0.04326590     -0.01807030     -0.01503650       1
O              11.50920000     15.79610000     12.25800000     -0.01392930     -0.00276720     -0.01345640       8
H              11.72580000     14.54290000     13.53990000      0.00317642      0.01131980      0.00222148       1
H              11.69970000     17.53430000     12.85470000      0.00628092     -0.01974170      0.01045110       1
O              22.40620000      7.48642000      0.43836500      0.00984000     -0.00818852     -0.02228490       8
H              23.09900000      7.05975000      2.15351000     -0.01347510     -0.01557230     -0.04791220       1
H              22.38270000      6.32026000     -1.13452000      0.00956646      0.01154560      0.07204450       1
O               4.28195000     22.36300000      2.88808000     -0.01781070      0.07546960      0.09867130       8
H               3.02511000     23.30580000      1.99089000     -0.00970177     -0.01175950     -0.01639020       1
H               3.85986000     23.54080000      4.73336000      0.03014050     -0.06119200     -0.07792000       1
O              15.58050000      8.87876000      9.29291000      0.03392480      0.03890630      0.02367070       8
H              16.69580000     10.33850000      8.79267000     -0.02914060     -0.02908120     -0.02168600       1
H              15.79400000      9.21019000     11.09260000     -0.01331260     -0.02027380     -0.00331741       1
O              18.50760000     20.30860000      8.11046000     -0.14262300      0.13149700     -0.25300400       8
H              19.33380000     20.03730000      9.32660000      0.17132100     -0.08438700      0.27078600       1
H              19.17030000     22.13770000      7.91429000     -0.03283590     -0.04841520     -0.01500700       1
O               6.36628000      6.89627000     16.60490000      0.00615801     -0.02420640      0.02968460       8
H               8.22540000      6.38142000     16.25870000     -0.06117510     -0.00007794      0.02202150       1
H               5.34087000      5.93424000     18.03410000      0.05836260      0.02697940     -0.05336360       1
O               9.11036000     25.15960000      6.87337000      0.04591250     -0.01238740     -0.05835530       8
H               9.64159000     24.01650000      8.24995000     -0.00502743      0.01016850     -0.03030440       1
H              10.41390000     24.90170000      5.00234000     -0.05310260      0.00812859      0.10600300       1
