192
Lattice="24.50705 0.0 0.0 0.0 24.50705 0.0 0.0 0.0 24.50705" Properties=species:S:1:pos:R:3:force:R:3 TotEnergy=-1103.46725 cutoff=-1.0 nneightol=1.2 pbc="T T T"
O       19.41210000       2.97738000      16.41660000       0.01699760       0.03227430       0.03747820
H       19.72670000       3.44743000      18.29770000      -0.01232770      -0.02996750      -0.04682830
H       18.46640000       1.49409000      15.95010000      -0.00347073      -0.01206420       0.02102700
O       23.57075000      20.93025000      10.10720000      -0.00436360       0.00135137       0.00503394
H        0.13600000      19.40575000      10.28470000      -0.00167972       0.00939481      -0.01045300
H       23.00475000      21.32575000       8.40592000       0.00832207      -0.01624740       0.00322553
O       13.58910000      23.49819000      19.51510000      -0.04443100      -0.03077200      -0.01280780
H       12.36820000      22.09338000      19.04550000       0.01349640       0.02428600       0.01126940
H       14.73580000      23.45569000      18.13570000       0.02327080       0.00058709      -0.01173720
O       20.65044000      14.88823000      24.27231700       0.00403170      -0.06466700       0.03948080
H       20.68623000      16.61510000      24.20841400       0.00038031       0.06719360      -0.01386840
H       20.76293000      14.66481000       1.63171000      -0.00504934      -0.00201783      -0.02012310
O        4.47830000       9.06435000      20.96560000       0.02169730      -0.04188070       0.02147520
H        5.99536000       9.93675000      20.64880000       0.01108860       0.05151520      -0.02851610
H        5.62115000       7.73475000      21.65800000      -0.04081620      -0.01285580      -0.00122477
O       23.41934000      13.54940000       8.68575000      -0.04413150       0.06859650       0.02914690
H       24.32118300      12.21950000       8.14705000       0.04750570      -0.06439270      -0.03147660
H        0.09587800      14.66680000       9.53132000      -0.00413937      -0.00286738       0.00603768
O       13.12195000      23.46770000      11.02490000       0.01741420       0.01954260      -0.03085960
H       13.71845000      23.68810000       9.07957000      -0.00831398      -0.03006710       0.05070760
H       12.49565000      21.86910000      11.74550000       0.00211411       0.00369713      -0.02168230
O       24.17345800       0.06015000      13.66410000       0.07069140      -0.05543340      -0.06389400
H       24.18495400      23.62220000      11.89410000       0.00257014       0.02084250       0.05761220
H       22.59856000       0.67755000      13.74940000      -0.07627600       0.03372460       0.01111760
O        8.08915000      12.27230000      18.98890000       0.10913400      -0.05909840       0.01561480
H        9.62775000      10.87580000      18.47950000      -0.06505380       0.04167850       0.00283450
H        9.37815000      12.92770000      20.34320000      -0.04325760       0.00892571      -0.02577740
O        9.12893000      21.76820000       2.22735000       0.02767180      -0.10322400      -0.06735350
H       10.65410000      22.54090000       1.77245000       0.03653990      -0.00257470      -0.03049650
H        8.60929000      22.98880000       3.17635000      -0.06833490       0.10178700       0.09663150
O       11.84345000       3.88765000       4.84182000      -0.01262100      -0.01045490       0.00784420
H        9.99905000       3.33712000       5.03818000       0.02713020       0.00340728      -0.02357700
H       12.48165000       3.95559000       3.09726000      -0.01671120       0.00399383       0.01381410
O       13.96335000      10.14535000       1.88140000      -0.14827200      -0.05608240       0.20708700
H       14.68662000      10.50785000       0.57530000       0.12777700       0.05929690      -0.21985100
H       12.13375000      10.37945000       1.57790000       0.02352170      -0.00321536       0.01684230
O       16.03300000      19.47760000       3.95075000      -0.11614200       0.07343350      -0.03964670
H       17.07000000      18.36740000       4.57735000       0.09769590      -0.08549510       0.04956390
H       14.38090000      18.60010000       4.20245000       0.02186960       0.01677240      -0.01376960
O        1.74015000      16.76290000      11.72455000       0.04982480       0.02512570       0.01570640
H        3.47265000      16.83310000      11.00455000      -0.01866040      -0.00437783       0.00095541
H        2.31035000      17.33080000      13.49895000      -0.03328580      -0.01577340      -0.02342950
O       21.66052000       3.75559000      21.45700000       0.02782610       0.03346030      -0.02784670
H       23.10015000       4.78094000      20.55788000      -0.03699250      -0.02068880       0.02094480
H       22.46453000       2.21214000      21.87986000       0.00550510      -0.01229820       0.00491320
O       20.98570000      22.02320000       4.92965000       0.00705586       0.04049580       0.03653800
H       19.56800000      22.38320000       5.99615000      -0.02270130      -0.02065420      -0.00455748
H       21.75690000      23.64830000       5.52305000       0.02040050      -0.01261340      -0.03136140
O       17.47200000      11.24540000      22.26550000      -0.00243106       0.01452290       0.00539844
H       16.58340000      11.67920000      20.65220000       0.01860780       0.00672535       0.02247510
H       18.30390000      12.72980000      23.12110000      -0.01309810      -0.01846780      -0.02699990
O        9.07055000      11.57240000       3.57745000       0.09303480       0.11130800       0.09905480
H        8.77905000      12.00920000       5.58545000       0.00937442      -0.01944190      -0.06793470
H        7.91275000      10.47140000       3.22485000      -0.10306300      -0.08916240      -0.03067710
O       16.76040000      23.23770000      15.10415000       0.04356800      -0.05856920      -0.05140230
H       15.45370000      23.63700000      13.91195000      -0.01079900       0.00646844      -0.00964142
H       17.80380000      21.84350000      13.92435000      -0.03508300       0.05248550       0.06100190
O        7.37060000       1.51405000       4.90769000      -0.03436490       0.03042160      -0.07690420
H        6.32290000       1.16695000       6.32572000      -0.01125070      -0.00927929       0.01692560
H        5.97810000       2.09115000       3.44741000       0.05680860      -0.01182150       0.04725450
O        7.16425000      16.97240000      10.60485000      -0.15711100      -0.12096800      -0.09727780
H        7.63635000      15.09630000      10.02635000      -0.00586399       0.05059870       0.01112130
H        8.51105000      17.52310000      11.24265000       0.16093100       0.07148130       0.07573840
O       13.44415000       7.48205000      13.02590000      -0.15751300       0.02387320       0.00358769
H       12.76815000       6.01586000      12.09540000      -0.02957510       0.00882723       0.00467486
H       14.94319000       6.97402000      12.81290000       0.18901000      -0.04072130      -0.00775827
O        6.45324000       4.08897000      21.31015000       0.04841950       0.02580160       0.06580650
H        8.33513000       3.80706000      21.41978000      -0.02147130       0.00169193      -0.00364681
H        6.03193000       3.55858000      19.75581000      -0.02399350      -0.02648040      -0.07454490
O       18.83765000       6.91590000       0.12905000      -0.00331658       0.02089000      -0.00296953
H       18.24455000       8.44005000      23.70980000       0.00090209      -0.00802474       0.00860777
H       20.24745000       6.42227000      23.60460000       0.00189446      -0.01599460      -0.00112769
O        1.53091000       9.05940000       6.85795000       0.02713050       0.01551990       0.06028850
H       24.33785500       8.77010000       6.70865000      -0.05156220      -0.01695430      -0.01433090
H        2.29138000       8.98200000       5.28615000       0.02164770      -0.00193050      -0.04384070
O        8.73675000      12.39175000       8.85939000      -0.02229750      -0.03670370       0.05257940
H        7.41049000      11.30795000      10.20310000       0.05412570       0.02841940      -0.05726780
H       10.60950000      12.06685000       9.22109000      -0.03802200       0.00373957       0.00866529
O        9.75635000      19.57400000      18.21710000       0.00760637      -0.03511100       0.00835317
H        8.05615000      19.97890000      17.68230000      -0.00268060       0.00249983       0.01390260
H        9.69365000      17.92350000      19.17480000      -0.00195207       0.03604690      -0.01499000
O        4.45155000       9.04255000       2.30480000       0.01322920      -0.02289950       0.02052270
H        3.32805000       9.96515000       1.28770000      -0.01593230       0.01219730      -0.02027470
H        4.27405000       7.25775000       1.88400000      -0.00195462       0.00563689      -0.00014625
O       12.44230000       8.57185000      18.07420000       0.00488478       0.04373580      -0.05684130
H       12.68840000       7.93215000      16.32340000      -0.00046030       0.01827660       0.00646875
H       12.09350000       7.04215000      18.76450000      -0.01521600      -0.06306020       0.04858460
O        0.82258400      24.15450000      24.28940000       0.00235316      -0.02632430      -0.00600201
H       23.58710300      23.82260000       0.23875000       0.01273000      -0.00420728      -0.00026152
H        1.72316000      22.47020000      24.07410000      -0.01474450       0.03371400       0.00949306
O        4.76590000      15.47790000      23.62327400       0.11313900       0.03485830      -0.00719373
H        6.16842000      14.36750000      23.00415000      -0.03891660       0.02175420       0.01439670
H        3.26770000      14.69860000      23.60538900      -0.07360280      -0.05838880      -0.00643373
O        2.79687000       2.47038000      16.81930000      -0.01974600       0.02043190       0.00186871
H        1.62869000       1.66827000      15.52210000       0.01198880       0.01678010       0.02544790
H        1.89780000       3.96792000      17.71690000       0.01279780      -0.04109820      -0.03274730
O       11.56430000       3.63410000      20.61580000      -0.01010040       0.06990540       0.04761750
H       12.16640000       2.12910000      19.96720000       0.02086860      -0.03960470      -0.00939381
H       12.57090000       4.15380000      22.22470000      -0.01358930      -0.02750450      -0.03918090
O        4.00264000       0.42630000       8.21575000      -0.00205879       0.04533530       0.05375450
H        4.17260000       1.57630000       9.85415000      -0.00471711      -0.04059570      -0.04544280
H        3.53488000      23.21445000       8.56875000       0.00505934      -0.00291678       0.00467865
O       16.50830000      11.24435000       6.29437000       0.02577260       0.01574620       0.02434980
H       15.60680000      10.45455000       4.98274000      -0.02459590      -0.00630172      -0.03236040
H       18.05620000      10.26695000       6.33289000       0.00622477      -0.00869051       0.00022986
O       19.78090000      11.37765000      11.98920000      -0.02418410      -0.05342570       0.06751160
H       18.17750000      12.02625000      11.69920000      -0.03241170       0.00469708      -0.00076359
H       20.78130000      12.11545000      10.85600000       0.06422670       0.04233140      -0.06763830
O       10.82235000       3.43925000      10.40790000       0.03266070      -0.02431520       0.00229572
H       11.23115000       3.90595000       8.68895000      -0.00213268       0.00089518       0.00162972
H       11.88495000       1.78065000      10.68430000      -0.03410270       0.02939300       0.00225863
O        0.25660000       6.58353000      18.82380000       0.00136618       0.03229660      -0.03508710
H       24.10905000       7.84144000      17.48650000       0.00004796      -0.02238280       0.02211440
H        1.80980000       7.45005000      19.23770000       0.00700273      -0.00138102       0.01259480
O        4.84915000       9.31495000      11.11495000       0.08649650       0.14426700       0.08547440
H        5.19175000       7.73245000      11.18475000       0.04906720      -0.15579400       0.02359330
H        3.59165000       9.20785000      10.10655000      -0.13136500       0.01291890      -0.10888700
O       19.65920000      15.54340000       5.44335000      -0.02313400      -0.06173820       0.03835570
H       21.16230000      15.31040000       6.65295000      -0.03924840      -0.00285573      -0.02929080
H       18.25590000      13.93520000       5.88105000       0.05770540       0.06052290      -0.01847260
O        4.75695000      21.33478000      18.75495000       0.00872436       0.00343873      -0.06103890
H        4.23075000      21.18070000      20.40565000      -0.01058720      -0.00063199       0.05291490
H        3.89165000      22.73861000      17.97285000       0.00198741       0.00139519       0.00800705
O       19.43825000       3.61558000       8.38535000      -0.03606690       0.02448470       0.00194089
H       19.15625000       4.96422000       9.94485000      -0.00286851      -0.05750670      -0.04139060
H       17.78195000       3.09703000       7.56205000       0.03863780       0.01414710       0.02664840
O       16.27787000      15.75790000      13.71205000       0.01863400       0.07236540       0.07294510
H       17.74130000      17.09320000      13.90195000      -0.03789590      -0.03162020      -0.01314360
H       16.68505000      14.89390000      12.30735000       0.00793572      -0.03448060      -0.06139550
O        5.58930000       4.08775000      12.19115000      -0.00878802       0.02618050      -0.08123360
H        7.31180000       4.12135000      11.61475000       0.00974069      -0.01631490       0.02072080
H        4.99780000       3.54975000      13.72525000       0.00095370      -0.01902770       0.05887790
O       15.11370000      24.45453900       6.45518000      -0.01665470      -0.04520180      -0.06317610
H       13.60480000       0.87807400       5.78292000       0.02100760       0.00095678       0.00477959
H       15.38880000      22.99141000       5.00907000      -0.00905397       0.04642470       0.05929420
O       10.91530000      15.19571000      21.65735000      -0.02236730       0.01177220       0.04136340
H       12.48440000      15.04565000      20.94185000       0.05092520      -0.01059850      -0.04079330
H       11.47890000      15.58604000      23.38825000      -0.01916490       0.00595431      -0.00193507
O        3.93831000      12.33135000      15.42439000       0.03350580       0.01404190       0.03738390
H        5.44913000      12.62175000      16.62854000      -0.03342590      -0.01926650      -0.03223040
H        4.23263000      10.83195000      14.40325000       0.00264156       0.00966925       0.00237081
O       20.03950000      19.03960000      13.75220000       0.07707000      -0.04214190       0.02189870
H       21.45100000      19.49700000      12.47900000      -0.03419330      -0.00390298       0.02041730
H       21.05840000      17.79350000      14.99580000      -0.03429260       0.05309490      -0.04138520
O       11.75300000      18.72960000      13.29675000       0.00599595       0.00047218      -0.01697420
H       13.22690000      17.65450000      13.53935000      -0.00511491       0.00097397      -0.00036389
H       10.76570000      18.67440000      14.80795000       0.00260959       0.00205878       0.01428570
O       24.22710000       1.83910000       5.58335000       0.02925440      -0.00012521       0.03290410
H       23.63110000       2.72290000       7.07545000      -0.01280860       0.00168537      -0.01199690
H        1.46505000       1.47630000       6.28835000      -0.02503950      -0.00267410      -0.01968480
O       20.45639000       7.89643000       5.16294000       0.02334470       0.09395680      -0.01157600
H       20.13325000       6.40106000       5.86476000      -0.01686130      -0.08884990       0.04167610
H       20.29442000       7.70874000       3.39582000      -0.00627691      -0.00422402      -0.02670790
O       13.71090000      22.72310000      24.24950000       0.00539218       0.01516570      -0.01851310
H       14.48570000      21.11130000       0.18585000      -0.00793941       0.01550430      -0.01525390
H       13.74400000      23.26210000      22.27880000       0.01001970      -0.03074340       0.05189910
O       20.44519000      20.32830000      24.44575000      -0.08646580      -0.00147686      -0.00301005
H       18.43144000      20.45940000      24.50185000       0.07375440      -0.00417752      -0.01207430
H       20.61238000      20.55410000       1.72520000       0.01421130       0.00518943       0.01470410
O       11.80855000      16.74095000       2.10186000       0.00975744       0.00203409      -0.00390170
H       10.34025000      17.65085000       2.59372000      -0.01202770       0.01594790      -0.00108814
H       11.39945000      15.06095000       2.55127000      -0.00285481      -0.02289490       0.01023350
O        1.77335000      17.24340000      16.75270000      -0.02142440      -0.11529400      -0.05110810
H        2.84455000      15.59980000      16.63430000      -0.03060630       0.05214180       0.00786891
H        2.62285000      18.49680000      17.50280000       0.05309240       0.06166070       0.04359060
O        4.43185000      20.53355000      24.19690700      -0.02170240      -0.04282250       0.00878776
H        4.13725000      18.65035000       0.11761000       0.02275980       0.04672800      -0.01866290
H        6.03435000      21.06265000       0.37450100       0.00486298      -0.00376628       0.00280017
O        4.35071000      19.67960000       6.59355000       0.04668460      -0.01603330       0.11738500
H        5.34632000      18.28360000       7.68745000      -0.03227560       0.04668380      -0.05390650
H        3.80433000      19.40480000       4.99835000      -0.01068990      -0.02854390      -0.05807270
O        4.22383000       3.65305000       1.11487000       0.03020650       0.03493350      -0.00862983
H        4.47831000       3.78105000      23.77167800       0.01230700      -0.00493365       0.01704810
H        3.01470000       2.41285000       1.24604000      -0.04746870      -0.03702680       0.00453578
O       13.92875000      12.02255000      10.47510000       0.00738750       0.02542110      -0.02256860
H       14.22535000      10.35995000      11.02090000      -0.00857492      -0.02660470       0.01717810
H       14.86488000      11.98625000       8.86049000      -0.00723124       0.00241123       0.00387450
O       18.82308000       5.72508000      12.55560000      -0.02586740       0.04818390      -0.09918050
H       19.83429000       7.12680000      12.78730000       0.02207750       0.03392270       0.01407330
H       18.65456000       4.80836000      13.95950000       0.00482406      -0.05679160       0.09085920
O        1.03565000      12.13975000      23.39134000      -0.06675110      -0.00631032      -0.04918370
H        1.38125000      11.10955000      21.78957000      -0.00643080       0.02635350       0.04554790
H       23.64150000      12.77565000      23.19001000       0.06315870      -0.01859320       0.00940017
O       23.42790000      10.70360000      16.02875000       0.00345564       0.03214450      -0.01432730
H       22.10510000      11.25050000      14.66135000       0.04745850      -0.00627709       0.04264660
H        0.47945000      11.88920000      16.39315000      -0.05204890      -0.03228180      -0.02936670
O       14.60320000       3.80585000       0.10320000      -0.03600620      -0.06457130       0.02127010
H       16.01870000       4.80785000       0.35470000       0.04414410       0.02944910       0.00398615
H       14.95000000       2.08705000       0.86350000      -0.00548705       0.03274090      -0.02531670
O       15.01321000      13.17380000      18.16940000      -0.02072430      -0.03472420      -0.05011060
H       15.70082000      13.99820000      16.61300000      -0.00631769      -0.00374913       0.02061190
H       14.10515000      11.62820000      17.36810000       0.02465530       0.04295580       0.03319820
