192
Lattice="24.65838 0.0 0.0 0.0 24.65838 0.0 0.0 0.0 24.65838" Properties=species:S:1:pos:R:3:force:R:3 TotEnergy=-1103.38966 cutoff=-1.0 nneightol=1.2 pbc="T T T"
O       24.12210000      20.34543000      18.80486000       0.11526300      -0.07696560       0.02045480
H       22.63720000      20.93132000      18.40406000      -0.10987600       0.04502760      -0.03809290
H       24.39400000      18.52884000      17.71686000      -0.00047273       0.03635310       0.00527959
O       22.79562000      21.26882000      23.53851000      -0.02961460      -0.13192300      -0.06396080
H       23.42222000      22.70892000      24.06786600       0.04987500       0.10587900       0.02777950
H       23.57092000      20.64902000      21.75560000      -0.01426800       0.02395580       0.04465160
O       11.30290000       4.50609000      14.78060000       0.03331670      -0.10933300      -0.04839840
H       12.26750000       3.52205000      16.09620000      -0.01395880       0.03503410      -0.01041600
H       11.56680000       2.87131000      13.34020000      -0.01629370       0.07542960       0.05168740
O       18.56909000      15.64878000      22.49793000      -0.03265390       0.06694120       0.09174600
H       19.96170000      15.42899000      21.57100000       0.07255320      -0.02594120      -0.05725360
H       19.27456000      16.89957000      23.96018800      -0.03915570      -0.04527360      -0.04528310
O        5.07358000       8.79602000      19.63540000      -0.07010040      -0.03148490      -0.04377830
H        6.49264000       9.56142000      20.16770000       0.07330630       0.03823830       0.05354600
H        5.33434000       9.24172000      17.88980000      -0.00725686      -0.01320860      -0.01525220
O       19.40244000       9.68043000       7.10688000       0.01730500       0.00947151       0.06414400
H       19.32339000       8.61625000       8.74701000      -0.01520130       0.01484160      -0.05418910
H       18.63526000       8.99347000       5.64246000      -0.01353680      -0.02219590      -0.01076910
O       21.80272000       2.43832000      11.91470000      -0.18092200       0.08930350      -0.00345941
H       23.29942000       1.90692000      12.03270000       0.16422300      -0.07192440       0.01280950
H       20.57182000       1.34762000      11.17490000       0.00685724      -0.01590020      -0.00476078
O       22.04404000      15.74486000       6.86055000      -0.06324890      -0.01990190      -0.05851450
H       22.55007000      16.64096000       5.13512000      -0.00726947      -0.01884930       0.04925780
H       20.25252000      14.71946000       6.43485000       0.07019330       0.05095640       0.01590090
O        7.85412000      15.50606000      18.83150000      -0.03499900      -0.01146730       0.03879860
H        6.49692000      15.51566000      17.61020000       0.00476426      -0.00346323      -0.00780727
H        7.06632000      14.46796000      20.30100000       0.03711290       0.02641430      -0.03750820
O       10.16890000      22.09266000      24.31886000       0.06313880      -0.01815670       0.00638220
H       12.23650000      21.88116000      24.26806000      -0.07773700       0.00253962       0.00536758
H        9.55138000      20.84276000       0.91958000       0.01165850       0.01185140      -0.01496540
O       14.78395000       2.43489000       7.82714000       0.01530640       0.01402630      -0.04080680
H       14.09428000       2.46089000       6.11315000       0.01635630       0.01499510      -0.00290364
H       13.56518000       1.39676000       8.51987000      -0.02664390      -0.02717750       0.04068330
O       13.42888000       4.16802000       2.73264000      -0.02900910       0.00944845       0.03554300
H       11.56118000       4.47122000       3.03034000       0.02518810      -0.00771150      -0.01526170
H       13.95898000       4.07752000       1.02214000      -0.00591493      -0.00933714      -0.01336510
O       15.12870000      19.46956000      10.61558000      -0.09720130      -0.03538890      -0.20576100
H       15.55430000      17.91696000       9.47688000      -0.00607436       0.04353260       0.03884950
H       16.00730000      19.39106000      11.92958000       0.10584100      -0.01545350       0.16544100
O        4.77332000      14.40300000      14.30952000       0.00245480      -0.05253040      -0.04610230
H        3.23632000      14.62820000      15.15342000      -0.03055260       0.01896360       0.01619140
H        4.20782000      12.89870000      13.16512000       0.02576850       0.03688660       0.02358440
O        0.25887500       1.15199000       1.43639000      -0.15393500      -0.03883430      -0.04348360
H       24.33933400       0.70159900       3.02737000      -0.00227904      -0.01229760       0.04211610
H        1.76329000       1.70223000       1.31623000       0.15414500       0.05044720      -0.00145245
O       18.84896000      23.42070000       8.64112000      -0.01784980       0.00243140      -0.00281499
H       17.45876000      24.44060000       7.88132000       0.01471350      -0.01458790       0.01746500
H       18.06116000      22.05060000       9.62002000       0.00145143       0.01782750      -0.01528190
O       15.63406000      11.98580000       0.11692000      -0.04232720      -0.03852550       0.05311460
H       15.11976000      10.87390000      23.47430000      -0.00466497       0.00028216      -0.02928800
H       16.72086000      13.21080000      24.24410000       0.04188750       0.03962380      -0.03225460
O        4.05648000      16.45894000       3.54888000       0.04830240       0.02216780       0.06181690
H        4.94038000      15.84954000       5.21768000      -0.04115640       0.01679750      -0.05027020
H        3.07678000      15.12964000       2.90608000      -0.00854311      -0.03409230      -0.00503076
O       19.13254000      20.55650000      14.61272000       0.00637215      -0.03885890       0.05155800
H       18.69434000      22.30650000      14.23782000      -0.00653727      -0.00732277       0.01413340
H       18.75894000      19.79590000      16.66322000      -0.01328510       0.03925710      -0.07590780
O        8.43504000       4.84678000       3.98733000      -0.06035860      -0.05152810      -0.00646598
H        7.90954000       4.05138000       5.75385000       0.01887080       0.02093780      -0.05279470
H        7.16454000       3.82958000       2.59016000       0.04639170       0.02989510       0.04474820
O        4.90302000      17.86880000       9.13738000       0.05974590       0.06786010      -0.06065140
H        6.76482000      18.10620000       9.40318000      -0.03596320      -0.00680655      -0.00062119
H        4.26202000      16.70760000      10.17288000      -0.02438710      -0.06193240       0.06126280
O        7.52058000       8.41727000      14.67924000       0.07432600       0.00519621      -0.03125680
H        7.72638000       9.71964000      13.34164000      -0.01253170      -0.00320866       0.02132960
H        9.46668000       7.98767000      14.60154000      -0.06724590       0.00028220       0.01696410
O        5.63941000       1.94310000       0.51881100      -0.05252970       0.06645000      -0.04591050
H        4.93423000       2.48622000      23.30982000       0.00701033      -0.00399600       0.05657990
H        6.49377000       0.60732300      24.52677000       0.04641520      -0.06171320      -0.00643777
O       20.28582000       4.33061000       0.30962000      -0.04931970       0.09821040      -0.04850270
H       20.08692000       6.15826000       0.96912000      -0.00498979      -0.05885230      -0.01180830
H       21.19312000       3.48626000       1.45372000       0.05304210      -0.04351010       0.05565040
O       24.28788400      11.25344000       7.32292000      -0.02046800       0.03364730       0.01705320
H       22.81559000      10.17444000       7.56422000       0.00615362       0.00383710      -0.01093000
H       23.44168000      13.03564000       7.64172000       0.02847700      -0.03827930      -0.01726360
O       10.28050000      12.19322000      12.01420000       0.09150930      -0.04063680       0.03229550
H        9.51544000      11.96392000      10.44920000      -0.02270220       0.00460926      -0.04313410
H       11.97590000      10.99562000      11.89390000      -0.06221440       0.04114810       0.01286130
O        8.88068000      20.91930000      19.11880000      -0.02114450      -0.07850250      -0.03328520
H        8.60198000      18.86600000      19.17970000       0.00417586       0.06434020      -0.00644350
H        9.33298000      21.20750000      20.79850000       0.01110360       0.01505350       0.04347940
O        7.37572000       9.94982000       2.89034000       0.07213260      -0.01113780       0.00068753
H        8.07262000       8.19232000       3.11834000      -0.03278870       0.01976940      -0.00143302
H        5.64872000      10.20372000       2.69804000      -0.04069440      -0.00911845      -0.00095302
O       13.70050000       9.49972000      20.47410000       0.05423910      -0.08509010      -0.03610330
H       14.75510000      10.01502000      18.93570000      -0.02284110      -0.00607254       0.03808820
H       14.28430000       7.41012000      20.42580000      -0.03495100       0.08790680       0.00167663
O        3.79508000      23.51356000      18.09680000       0.01220200      -0.02272760       0.00296195
H        2.24845000      22.38266000      18.25580000       0.03914870       0.00787906       0.00477159
H        5.53390000      22.70316000      18.51200000      -0.05589760       0.01018850      -0.00952196
O       23.95563400      19.12740000       3.45901000       0.01930680       0.00425219      -0.07567800
H        1.14307000      18.74350000       3.24054000      -0.02473670       0.00080788       0.01583210
H       23.55286000      19.75540000       1.49264000       0.00147165      -0.01442020       0.05152710
O        1.69842000       0.34205800      13.24070000      -0.07533320       0.08596360      -0.09865890
H        1.94120000      24.16149100      11.69440000       0.01807820      -0.02326190      -0.01468090
H        2.43894000      24.40589800      14.56180000       0.07099630      -0.06623690       0.11187600
O       14.91506000       3.83734000      18.40846000       0.05607680       0.02111700       0.01622060
H       16.69276000       4.65874000      18.45106000      -0.04656010      -0.02286550      -0.02179480
H       15.23706000       2.67514000      19.79916000      -0.01298640      -0.00266383       0.00614317
O        7.09798000       2.24474000       8.28538000       0.04555180       0.03768510       0.00415685
H        5.98669000       3.47264000       8.96548000      -0.02663990      -0.00034809       0.00765422
H        6.42731000       0.87374000       7.41708000      -0.03321210      -0.02691570      -0.00709562
O       12.95926000      15.40492000       3.77049000      -0.03881680       0.05816150       0.08377360
H       13.30996000      14.51912000       2.39510000       0.01299630      -0.06029610      -0.08258000
H       11.12566000      16.06092000       3.70432000       0.03955710      -0.00344040      -0.00922483
O       18.01150000       9.76572000      16.90330000       0.01586400       0.05232820       0.05374110
H       16.92590000       9.73082000      15.56630000      -0.03662520      -0.00650897      -0.05178700
H       18.88510000       8.26382000      17.01240000       0.01697190      -0.04595910      -0.00641111
O        7.58768000      12.44128000       7.70415000       0.07562680      -0.00247488      -0.06064600
H        8.25048000      11.50298000       6.10848000      -0.02370140       0.02763790       0.03946370
H        5.98058000      11.83438000       7.88852000      -0.05154110      -0.02211110       0.01385260
O        3.19356000       3.41318000      20.91050000       0.00685415       0.02896690      -0.04500470
H        2.72346000       2.52009000      19.22750000       0.02625450       0.01991460       0.04978380
H        4.08466000       5.10377000      20.53320000      -0.02299280      -0.03999290      -0.00189127
O        3.73078000      10.49328000      10.67782000       0.00599928      -0.08027870       0.02266450
H        4.02758000       8.58678000      11.34602000      -0.01119900       0.06865900      -0.02183140
H        2.27838000      10.18828000       9.59432000      -0.00448313       0.01401720      -0.00000264
O       16.72130000      14.72550000       7.26502000       0.04037340      -0.03857110       0.03025410
H       17.40530000      12.96280000       7.68172000      -0.01874580       0.03727190      -0.00775470
H       15.20010000      14.44420000       6.37992000      -0.02291580      -0.00158911      -0.01975460
O        3.36568000      22.81940000       8.24772000      -0.03992380       0.01120060      -0.01317560
H        3.51308000      20.99919000       8.36652000       0.00594276      -0.00348723       0.00273313
H        1.67908000      23.09396000       7.40292000       0.03039760      -0.00283857       0.00999250
O       17.85422000       6.10930000      10.58862000      -0.02747610       0.00923273      -0.03803610
H       17.37142000       4.98928000       9.16832000       0.00187373       0.00782647       0.02330850
H       19.26362000       5.43052000      11.39052000       0.02830890      -0.02119010       0.01441970
O       16.42659000      18.83076000      18.43390000      -0.01109320      -0.06710490      -0.02091290
H       17.20412000      17.35416000      19.44533000      -0.02394020       0.03428820      -0.01749960
H       15.20309000      17.93726000      17.10454000       0.03720650       0.02705510       0.04280690
O        4.18994000       5.18458000      12.14118000      -0.08097990      -0.07702550      -0.03964960
H        5.48544000       5.64958000      13.10868000       0.07812120       0.03070860       0.05937470
H        3.61474000       3.45748000      12.86788000       0.00531736       0.04356720      -0.02263630
O       10.55240000      24.59733800      10.81280000      -0.01252930       0.04749280      -0.02542630
H       10.03250000      23.61503000      12.24190000      -0.00061924       0.00057938       0.01058030
H        9.36088000       1.44775000      10.37730000       0.01874410      -0.05381250       0.00900876
O       15.32906000      21.35174000      23.09572000      -0.02094590       0.04284590       0.02226030
H       14.81446000      20.78230000      21.53212000      -0.00766706      -0.01568690      -0.04583820
H       16.31076000      20.08326000      23.78452000       0.02623100      -0.02826470       0.02317810
O       12.15290000      16.18274000      15.29902000       0.03304130      -0.01427110      -0.08262660
H       10.68100000      16.34082000      16.22079000      -0.03869300      -0.00976519       0.02227970
H       11.69690000      15.28437000      13.56008000       0.00738418       0.02049320       0.06254080
O       21.05260000      16.19430000      12.63950000      -0.00956369       0.09347560      -0.04852220
H       19.94200000      18.01770000      13.03490000       0.03979820      -0.05479510       0.00351672
H       21.57620000      16.74580000      10.80740000      -0.01299990      -0.02811250       0.04779230
O       11.81140000      21.92730000      14.80330000      -0.04827220      -0.01041060       0.06188730
H       10.76650000      22.23840000      16.53313000       0.03466740      -0.01601140      -0.05323050
H       11.52710000      20.08730000      14.63088000       0.01228110       0.01797970      -0.00087447
O       23.12680000      23.54862000       5.42392000      -0.01841030       0.05643890       0.03952570
H       21.66030000      23.57772000       6.55582000       0.00604758       0.00671774      -0.00315269
H       23.19070000      21.86792000       4.99062000       0.01081860      -0.05888890      -0.02467270
O       17.01570000       7.70770000       2.69344000       0.08076320       0.03985950      -0.01363370
H       16.38966000       9.13304000       1.78928000       0.02325070       0.03618810      -0.01524140
H       15.44135000       7.23475000       3.01104000      -0.09118510      -0.06690620       0.03722930
O       16.03420000       0.18478000      13.58990000       0.00933216      -0.04331060      -0.06833300
H       14.58100000      23.81206000      13.87380000      -0.01242880      -0.01908820      -0.00953946
H       15.93900000       1.10248000      14.99150000       0.00737369       0.06377640       0.07957930
O        0.18038400      16.45290000      15.97502000      -0.03040260       0.01904090      -0.04366010
H       23.92512400      15.30230000      17.04572000      -0.01133370      -0.01528040      -0.00125247
H       23.45922000      16.58030000      14.18282000       0.02208070      -0.00947834       0.05225520
O       17.59032000      17.95172000       2.05001000      -0.02123970      -0.00366753      -0.00312574
H       18.46892000      18.06562000       3.59754000       0.00660318       0.00299673       0.01465380
H       15.92012000      17.23462000       2.48591000       0.01484360       0.00622884       0.00093031
O       21.81080000      13.33780000      18.72906000       0.05225850      -0.01684750       0.04828580
H       23.11350000      12.36650000      19.91066000      -0.03112550       0.02974360      -0.02867150
H       20.91050000      11.97370000      18.01236000      -0.01990740      -0.00899753      -0.01449220
O        8.97038000      18.20202000       3.21351000       0.09097470       0.08487080       0.08811110
H        7.67518000      17.16822000       3.39930000      -0.09445600      -0.06074660      -0.00402631
H        9.17078000      18.85172000       5.31805000      -0.00028219      -0.01635520      -0.07627390
O        9.85564000      19.78186000       8.36972000      -0.00503281       0.06479930      -0.00524820
H       11.22450000      19.10626000       9.30732000       0.01579460      -0.00734267       0.00641529
H       10.14050000      21.75576000       8.63382000      -0.01140590      -0.05701170      -0.00296239
O        2.31154000      11.95022000       2.61102000      -0.03755800      -0.02438810      -0.07984800
H        1.37085000      11.60582000       4.11017000      -0.01548820      -0.00626645       0.01530440
H        1.14106000      11.40832000       1.02700000       0.04625620       0.01880860       0.06057130
O       14.22748000       8.70248000      13.09260000       0.03293140       0.03359030      -0.03107210
H       13.61548000       7.12098000      13.54720000      -0.02462890      -0.03897360       0.01911670
H       15.50644000       8.17348000      11.83120000      -0.00978966       0.00695384       0.01240680
O       19.82287000       4.77013000      16.88190000      -0.04125940       0.01960630       0.01915410
H       21.16290000       4.94539000      18.02330000       0.02952220       0.00161463       0.02505930
H       20.56025000       4.12166000      15.45490000       0.01700440      -0.02525370      -0.05022000
O        0.53742000      10.49268000      21.61844000       0.00573960      -0.01883840      -0.03463550
H       24.10350000       9.04508000      21.15726000       0.00857017       0.00911130       0.01185070
H        2.01952000      10.12898000      20.44023000      -0.01475120       0.00882277       0.03096970
O       22.93560000       5.63858000      20.61232000      -0.02168160       0.02994760      -0.03103310
H       21.57880000       5.34558000      21.73972000      -0.01074180      -0.00859022       0.02189510
H       24.35910000       5.00158000      21.40732000       0.03707180      -0.02328600       0.01682020
O       15.74050000       1.80082000      23.07612000       0.01223840       0.06135150      -0.01838210
H       17.51200000       2.07802000      23.41792000      -0.00525118      -0.00529990       0.00684172
H       15.25580000       0.17532000      23.44692000      -0.00130183      -0.04967450       0.01182040
O        8.57538000      11.64790000      22.05310000       0.04163650      -0.02295720       0.03664780
H       10.43878000      11.20280000      21.63000000      -0.05206140       0.01093720       0.01281100
H        8.28958000      11.23600000      23.92280000       0.01145670       0.00677329      -0.04107770
