192
TotEnergy=-1103.46145000 cutoff=-1.00000000 nneightol=1.20000000 pbc="T T T" Lattice="24.88844000       0.00000000       0.00000000      -0.00000100      24.88844000       0.00000000      -0.00000100      -0.00000100      24.88844000" Properties=species:S:1:pos:R:3:force:R:3:Z:I:1
O              23.77320000     -4.11922000    -30.51870000     -0.06912270      0.04576410      0.00007114       8
H              22.16580000     -4.25013000    -31.54270000      0.02159600      0.00292203      0.01477200       1
H              24.69370000     -5.50099000    -30.92680000      0.03616920     -0.05647970     -0.01445760       1
O              47.49070000     46.41920000      0.13859500      0.00547810     -0.14151400     -0.07368860       8
H              48.02710000     47.99020000      0.18204000      0.03691010      0.11404700      0.01124180       1
H              48.44110000     45.69970000     -1.51982000     -0.03962630      0.02897010      0.05987810       1
O              11.76070000      5.26419000     14.91670000      0.01596220     -0.00515882      0.02353640       8
H              12.53310000      4.72553000     16.52700000     -0.00526226      0.01555080     -0.01383560       1
H              11.37590000      3.68722000     14.09050000     -0.00364024      0.00075617     -0.01374390       1
O              -5.32274000    -10.09320000     -3.27508000      0.02769740      0.00890491     -0.01777530       8
H              -3.84673000    -10.56410000     -4.28149000     -0.00544608     -0.01243520      0.00150953       1
H              -4.85244000     -8.37907000     -2.75497000     -0.01878730     -0.01289500      0.01075550       1
O               5.82930000     32.32360000     18.94110000      0.00913605      0.00500878     -0.03177920       8
H               6.83199000     33.22720000     20.14900000      0.00513437      0.00638385      0.01282440       1
H               6.56803000     32.88430000     17.27740000     -0.01340950     -0.01321990      0.01898850       1
O              -4.79627000      9.83392000      7.63284000      0.04550390      0.15154700     -0.15346500       8
H              -5.40207000      8.70459000      8.55336000     -0.06850640     -0.15025000      0.12558300       1
H              -6.00469000      9.82177000      6.17766000      0.01804010     -0.00730977      0.01980930       1
O              46.83740000     26.19120000     11.72070000      0.00673628     -0.04296850      0.00441600       8
H              48.54140000     25.51430000     12.24250000     -0.01871270      0.02427960     -0.00151486       1
H              45.84220000     24.61310000     11.51450000      0.00467544      0.02454770      0.00298454       1
O              -2.46090000    -28.99230000      8.37215000     -0.01163200     -0.00122328      0.01122000       8
H              -2.64077000    -29.81050000      6.74963000      0.01386340     -0.00895098     -0.00520613       1
H              -4.17087000    -28.48170000      8.75982000      0.00159446      0.00407770      0.00564230       1
O              31.87480000    -34.41910000     19.36880000      0.06854580      0.03156320      0.01517270       8
H              30.32600000    -34.66480000     18.63080000     -0.04410620     -0.01968700     -0.00825361       1
H              32.60870000    -35.59410000     20.56180000     -0.02153230     -0.01288130     -0.00514306       1
O               9.90590000    -27.13500000    -25.62200000      0.01690550      0.04057680     -0.10214100       8
H              11.64870000    -27.40210000    -26.31550000     -0.02308770      0.00415890      0.00939919       1
H               9.80968000    -27.82330000    -24.08710000     -0.00601935     -0.04693650      0.08628730       1
O             -10.80360000      0.68152300      8.32674000     -0.02017600     -0.05707790      0.11816500       8
H             -10.93140000      1.50174000      6.88019000     -0.01578620      0.05435320     -0.09327520       1
H             -12.39150000      0.84403300      9.38916000      0.03358220      0.00742333     -0.02095090       1
O             -11.58540000     28.94280000     54.00960000     -0.04567710      0.02773260      0.16452400       8
H             -13.40370000     29.38660000     54.50750000      0.03680910     -0.01029860     -0.02488580       1
H             -11.48120000     28.79170000     52.38810000      0.00158107     -0.01776390     -0.14296400       1
O              15.61480000    -32.28060000    -14.04000000      0.03120590      0.01916050     -0.06579550       8
H              16.75630000    -33.34440000    -15.14040000     -0.01747910      0.01481960      0.01546410       1
H              15.25560000    -33.14370000    -12.59660000     -0.01480410     -0.03082230      0.04696340       1
O              30.99110000     13.67670000     37.82780000     -0.03150280     -0.01332180      0.00487653       8
H              30.13960000     14.15470000     39.38360000      0.00549239      0.00393322     -0.00346006       1
H              29.54060000     12.80460000     36.97430000      0.01950420      0.00943971     -0.00114380       1
O              -0.07864100      1.69785000      1.58394000      0.05431450      0.01782900      0.02151620       8
H               0.36410900      1.79181000      3.44607000     -0.01280090     -0.01174770     -0.03849500       1
H               1.60411000      2.17668000      0.79080600     -0.04024640     -0.01197310      0.01547390       1
O             -32.21570000     22.84720000     35.90800000      0.09386580      0.02423790      0.03416920       8
H             -33.35640000     23.66800000     34.94950000     -0.06042050      0.03403230     -0.04536010       1
H             -32.67990000     21.26830000     36.37930000     -0.02869950     -0.06259670      0.00977835       1
O             -34.14470000     11.66460000     24.09080000     -0.04113390     -0.01363440     -0.00323922       8
H             -35.27900000     11.21940000     22.52560000      0.03833040      0.00792450      0.03054760       1
H             -32.49420000     12.26340000     23.71860000      0.00733188      0.00552388     -0.02473060       1
O             -20.37130000     66.30270000    -20.97300000      0.07546380      0.02986100      0.15205100       8
H             -19.75530000     64.79710000    -19.80890000     -0.00973652      0.05756640     -0.02209600       1
H             -20.93560000     65.29350000    -22.10130000     -0.06316690     -0.08875900     -0.13000900       1
O              68.76180000     20.20800000     40.97100000     -0.01586630      0.03554630     -0.02315650       8
H              68.03990000     21.81570000     40.01420000      0.01460520     -0.06773620      0.04031020       1
H              67.45500000     18.92130000     41.58500000      0.00776544      0.03278700     -0.01119100       1
O              57.68230000    -19.49010000      3.97438000     -0.01681600     -0.02580720     -0.04872700       8
H              56.84550000    -20.06400000      5.47079000     -0.00359355     -0.00717439      0.00595212       1
H              56.88910000    -20.59590000      2.51954000      0.02368740      0.02861660      0.03622440       1
O              31.70600000     18.74410000    -13.27120000      0.02676100      0.00913945     -0.01910260       8
H              33.13450000     18.82370000    -14.51580000     -0.01877710      0.00193477      0.01772910       1
H              31.42140000     16.95200000    -13.01700000     -0.00299108     -0.00434624      0.00409718       1
O             -17.64970000      8.42623000     63.98980000     -0.00082529      0.07852460     -0.01238300       8
H             -17.38750000     10.38950000     63.51120000     -0.00868194     -0.06404630      0.01202790       1
H             -16.17410000      7.54669000     63.47910000      0.01532140     -0.00440178      0.00076593       1
O               6.33981000      2.19732000     -0.26587800     -0.00523747     -0.00663351     -0.02846760       8
H               5.32200000      2.30922000     -1.97365000      0.03114770      0.00118680      0.04270840       1
H               7.86080000      1.11053000     -0.40215100     -0.02535630      0.01088790     -0.00660200       1
O              44.95070000      4.91774000     26.14850000     -0.03073200      0.04978800     -0.03159640       8
H              44.42290000      6.54211000     26.92510000      0.00413878     -0.03024200     -0.00176322       1
H              45.74420000      3.88885000     27.30240000      0.02448670     -0.02119520      0.03233650       1
O              -0.58157500     62.27620000     31.11650000     -0.00088294     -0.01975020     -0.00557131       8
H              -2.04127000     61.20020000     31.39600000      0.00743173     -0.01224730      0.00522536       1
H              -1.36689000     63.84370000     31.41340000     -0.00036976      0.02972150     -0.00111905       1
O              11.13540000     37.41630000     11.07130000      0.05294320     -0.03217820      0.01808400       8
H               9.86733000     37.22740000      9.83663000     -0.02371190      0.00161126     -0.02146440       1
H              12.35680000     35.99700000     10.74380000     -0.02125680      0.02898510      0.00912889       1
O             -18.17110000     20.68640000     20.05350000      0.02762550      0.09179380      0.05560440       8
H             -18.05310000     18.91680000     20.04080000      0.00688310     -0.03287230      0.00887515       1
H             -17.22450000     21.64330000     21.83340000     -0.02737620     -0.05012720     -0.06326510       1
O              31.53800000     35.28430000     51.95680000      0.02473960      0.10801100     -0.03589510       8
H              31.99490000     33.74870000     52.40970000      0.00850499     -0.10400800      0.03425930       1
H              29.84970000     35.88860000     52.08690000     -0.02077540     -0.01120690      0.00087497       1
O              12.99880000     34.51800000     19.95290000      0.00635672     -0.00940850      0.01108220       8
H              12.79230000     35.78300000     18.62050000      0.01808110     -0.02289390     -0.00366358       1
H              13.94030000     32.73200000     19.71820000     -0.01122700      0.04521690     -0.01814880       1
O               2.52963000    -25.82320000     18.13070000      0.08474010     -0.02314700     -0.00305607       8
H               1.05520000    -26.88620000     18.52210000      0.01349950     -0.00203301      0.00391240       1
H               4.43087000    -26.84490000     18.37130000     -0.08504120      0.02471550     -0.00041516       1
O              -0.89869600     17.99860000      4.36865000      0.05851730     -0.00608411      0.01920210       8
H               1.02411000     17.98650000      4.54377000     -0.03820320     -0.01167320      0.01310750       1
H              -0.81861700     18.81320000      2.80187000     -0.02167780      0.01867140     -0.03232620       1
O               1.97072000      0.99694600     13.25360000      0.00613667     -0.02115200      0.00200663       8
H               2.79944000     -0.42170800     12.37910000     -0.00013398      0.01665050     -0.02027910       1
H               2.24485000      0.28567500     14.91210000     -0.00718672      0.00856037      0.02286180       1
O             -34.28420000     55.28220000    -30.70180000      0.05143690     -0.05604900      0.01437500       8
H             -32.73420000     54.87440000    -31.95400000     -0.03908900      0.02283260      0.03244110       1
H             -33.86330000     54.21970000    -29.05650000     -0.01922190      0.03422670     -0.04210960       1
O               6.29273000     52.42190000    -16.67700000     -0.00979042     -0.05550950      0.02472690       8
H               5.07543000     53.30320000    -15.63980000     -0.00194499      0.00113392     -0.00133567       1
H               5.85422000     50.50560000    -16.33910000      0.00548267      0.05310420     -0.01270530       1
O             -33.70270000     40.50120000      2.89031000     -0.07120790     -0.03834220     -0.01176560       8
H             -34.27420000     39.00300000      1.64249000      0.02054790      0.04528880      0.02926580       1
H             -35.40110000     40.82220000      3.78436000      0.04809660     -0.00403354     -0.02398470       1
O              18.19470000     37.10830000     15.54340000      0.03275210      0.01315550      0.02560970       8
H              17.99650000     38.68460000     14.72340000     -0.00457303      0.00295289     -0.00860332       1
H              16.97850000     35.92860000     15.00580000     -0.01925060     -0.01634690     -0.01614430       1
O             -17.31780000    -12.64150000      7.32830000     -0.02643860     -0.00220881      0.01114160       8
H             -16.83920000    -13.49680000      5.74682000     -0.02286110      0.00391453      0.01726720       1
H             -19.00510000    -13.18260000      8.15025000      0.04136900     -0.00310257     -0.02902190       1
O             -46.39570000      3.42162000     20.63510000     -0.06980620     -0.14936900      0.02599670       8
H             -46.43550000      1.88829000     19.38590000     -0.00282083      0.03482980      0.02953820       1
H             -45.59760000      4.70626000     19.97190000      0.06454980      0.10130600     -0.05605790       1
O             -21.86840000    -14.07510000     34.72640000      0.04959170     -0.00696763      0.03639260       8
H             -22.28940000    -15.63370000     35.61080000     -0.00736766      0.00215397     -0.01238580       1
H             -23.04760000    -13.43890000     33.60610000     -0.04370070      0.00706094     -0.02569370       1
O              18.84580000     15.12570000     32.24360000      0.03336070      0.07354080      0.11962500       8
H              19.08500000     13.47010000     32.27250000      0.01951780     -0.10239000      0.02444660       1
H              18.29620000     15.28420000     30.71520000     -0.05387910      0.03202720     -0.13661500       1
O             -20.66410000     -2.11331000     34.82920000     -0.00956217     -0.01126040      0.00242738       8
H             -19.90640000     -3.50970000     36.01670000     -0.02801760      0.01100120     -0.05208560       1
H             -22.10530000     -2.43280000     33.57160000      0.04787390     -0.00700707      0.04045100       1
O              43.30160000      5.22125000     34.37600000      0.03857580     -0.05444430      0.03168210       8
H              42.18790000      4.46915000     33.19960000     -0.01441530     -0.00331103     -0.01141890       1
H              44.30760000      3.62122000     35.01490000     -0.02549850      0.05784380     -0.01587490       1
O              -8.99165000    -32.91830000     -6.45707000      0.04851620      0.00083540      0.01812440       8
H              -7.45818000    -33.75160000     -5.58907000     -0.03808040      0.00918163     -0.00729458       1
H              -9.83097000    -34.16910000     -7.43046000     -0.00987501     -0.01545260     -0.00548055       1
O              52.73130000    -18.64850000    -12.57080000     -0.00790340     -0.07006690      0.02770680       8
H              54.04320000    -18.10220000    -11.46450000      0.01664720      0.02008970      0.00087201       1
H              52.53340000    -20.43670000    -11.72920000     -0.01018310      0.04474050     -0.03688360       1
O              10.19230000      1.42712000     12.07780000     -0.01673350      0.03897700     -0.06729760       8
H               9.98407000      0.47220000     13.55350000     -0.02560850     -0.02549100      0.01804690       1
H               8.57011000      1.94998000     11.09730000      0.03941160     -0.01845070      0.03364610       1
O             -35.21590000     -2.19729000     46.77750000      0.06560400     -0.02772540     -0.04157700       8
H             -35.14980000     -1.89016000     44.90900000     -0.01345960     -0.00215647      0.02968510       1
H             -33.64300000     -3.41325000     46.84680000     -0.05050540      0.02624950      0.01405850       1
O              12.01030000    -10.66810000     -8.80707000      0.04050930      0.00957736      0.04480430       8
H              10.53560000    -10.02730000     -8.03464000     -0.02136480      0.00156161     -0.00384169       1
H              11.79140000    -11.44850000    -10.35950000     -0.02280710     -0.01366170     -0.04122730       1
O              23.24120000     17.61490000     13.04720000      0.09015800      0.02793670     -0.11356500       8
H              21.80660000     17.85050000     13.89190000     -0.08300860      0.02197650      0.03788830       1
H              23.20690000     18.72680000     11.25470000     -0.00790279     -0.04480470      0.07521760       1
O               8.31088000     22.91770000     -9.64027000      0.01969900      0.02270180      0.05486300       8
H               8.55516000     22.12960000     -7.95094000     -0.01549110      0.01044990     -0.01458620       1
H               7.89690000     21.59720000    -10.69670000     -0.01456930     -0.04100030     -0.03087240       1
O              24.93180000     49.81360000     31.67860000     -0.00876846     -0.04022600      0.05988070       8
H              24.26570000     50.86770000     33.03490000      0.00415827      0.01012510     -0.01374500       1
H              24.58330000     48.15430000     32.75640000     -0.00319918      0.03926420     -0.05083390       1
O              -8.42418000      8.22430000      3.62358000      0.07087960      0.06424370     -0.02002910       8
H              -8.65321000      9.56092000      2.33575000     -0.01128660     -0.02146390      0.00971277       1
H              -9.83850000      7.28666000      3.88820000     -0.05554670     -0.03543130      0.00583586       1
O              13.32740000    -28.87560000     16.36660000     -0.02555710     -0.01731690      0.01670990       8
H              11.58730000    -28.48780000     15.74170000      0.03455610     -0.01161600      0.01428260       1
H              13.29760000    -30.34940000     17.59810000     -0.00310121      0.03433180     -0.03146720       1
O               2.59794000     15.99430000     41.52530000     -0.04094020      0.01585170      0.00737978       8
H               1.12340000     15.15260000     42.21950000      0.00907932     -0.03656690      0.01155670       1
H               1.28875000     17.16080000     40.93940000      0.02884940      0.01620670     -0.03000010       1
O              43.08190000     43.61570000     -1.01317000      0.01019540      0.03758360      0.08494260       8
H              44.44290000     44.86520000     -0.40046900     -0.02783550     -0.02461790     -0.01759050       1
H              42.34970000     43.08280000      0.79337100      0.01643980      0.00522687     -0.06460900       1
O              23.21690000     13.10730000    -31.67680000     -0.13021200      0.03922430     -0.05727620       8
H              24.48110000     12.05620000    -31.27520000      0.05052680     -0.07436300      0.02228440       1
H              21.55490000     12.17920000    -32.65160000      0.07305180      0.03221040      0.03652850       1
O             -15.54560000     44.22290000      3.45024000     -0.00008320     -0.00616984      0.00518760       8
H             -17.14830000     43.26520000      3.49399000      0.02123420      0.00957587      0.00900380       1
H             -14.60520000     44.14640000      5.05593000     -0.02068760     -0.00238435     -0.01168430       1
O              11.43670000    -29.84750000     33.46430000      0.00456976      0.04939350      0.01424520       8
H              12.84140000    -30.78210000     34.37860000     -0.01640310      0.02828770     -0.01292030       1
H              11.47720000    -27.83810000     33.63810000      0.01261050     -0.08230430     -0.00174528       1
O               2.14229000     37.01240000      1.30490000     -0.03244180     -0.03022230     -0.01661320       8
H               0.68799700     36.72040000      2.60358000      0.03858910      0.00313384     -0.04544130       1
H               2.10953000     35.94790000     -0.39449900     -0.01550710      0.03114630      0.06120070       1
O              -9.88357000    -15.95420000     12.77280000     -0.01612030     -0.07717750      0.00496888       8
H             -11.06420000    -17.43140000     13.32690000      0.00432519      0.04640170      0.00427016       1
H              -8.73209000    -17.31560000     12.21390000      0.01185530      0.02908720     -0.00701189       1
O              -4.96610000      5.27558000     16.33750000     -0.01938430     -0.06560430     -0.07627770       8
H              -4.07373000      5.31061000     17.84280000      0.03125120     -0.00496275      0.03689360       1
H              -4.49448000      3.57107000     15.32340000     -0.01145710      0.06766570      0.04041620       1
O              26.10200000    -15.80570000     -4.29252000     -0.11931700      0.00392385      0.04132060       8
H              25.13250000    -17.46580000     -4.32616000      0.01974740      0.02945720      0.00113708       1
H              27.66520000    -15.97280000     -4.85711000      0.09589480     -0.02271620     -0.03826300       1
O              23.17140000      4.88496000     46.12580000      0.03746930     -0.03222600     -0.02991450       8
H              22.76150000      5.29747000     47.88000000      0.01205250     -0.02157310     -0.00908031       1
H              24.74030000      3.60434000     45.70500000     -0.05167540      0.05354090      0.03850260       1
O              15.28440000     28.11920000     48.93220000      0.05401510     -0.05141210      0.01233810       8
H              16.87860000     28.56170000     49.99120000     -0.03395850     -0.00796232     -0.03040200       1
H              15.55710000     26.19490000     48.53790000     -0.01397180      0.05661160      0.01164350       1
O             -16.33660000     10.73960000     21.76810000     -0.01297840      0.01211790     -0.02445920       8
H             -14.79940000     10.34160000     20.78870000      0.00161536     -0.00713789      0.02769470       1
H             -16.23360000     10.54420000     23.55140000      0.00710034     -0.00316852      0.00990766       1
