192
Lattice="22.44552 0.0 0.0 0.0 22.44552 0.0 0.0 0.0 22.44552" Properties=species:S:1:pos:R:3:force:R:3 TotEnergy=-1102.23321 cutoff=-1.0 nneightol=1.2 pbc="T T T"
O       21.74120000      19.24180000      10.25180000       0.03793440      -0.02947560       0.01786320
H       20.74500000      17.72030000      10.00090000       0.00168226       0.00509552       0.00443333
H        0.72848000      18.47240000      11.36200000      -0.04603180       0.03459020      -0.03605970
O       12.64660000       6.23537000      11.11620000      -0.04004900      -0.14424900      -0.01213380
H       13.27510000       6.39160000      12.70920000       0.03357510       0.00402532       0.07951020
H       12.86420000       7.66906000      10.38780000       0.02748310       0.13424200      -0.06835030
O        9.52382000       5.58077000      20.71200000      -0.01669740       0.01298680      -0.01655390
H        9.15255000       6.05582000      18.89310000       0.01699810      -0.00627435       0.03445730
H        8.76448000       6.96704000      21.61750000      -0.00426542      -0.00074853      -0.00600842
O       10.39850000      16.26010000      19.19990000      -0.04290970       0.02764910       0.09527190
H       10.57170000      16.92920000      21.18910000       0.01319580      -0.02345700      -0.10381200
H       11.88800000      16.11770000      18.17860000       0.02254070      -0.00250884       0.01233190
O        1.72340000      15.57510000      17.35710000       0.01177530      -0.00572857      -0.03430720
H        3.92624000      15.77560000      18.14340000      -0.01437490      -0.00800634       0.00008037
H        1.69319000      14.67080000      15.66670000       0.01386830       0.00498192       0.04364250
O        2.22089000      19.85740000      15.15790000       0.01186070      -0.02647540       0.01600030
H        3.27734000      19.36570000      13.78050000       0.00511597       0.01222530       0.00112633
H        2.17573000      18.16140000      16.14710000      -0.00911669       0.02184070      -0.00354280
O        9.20043000      12.92310000       3.53026000       0.03882970       0.21004900      -0.05630500
H        9.25391000      11.52430000       4.44124000       0.01026290      -0.10119100       0.07316290
H       10.36170000      14.47330000       4.28323000      -0.04553830      -0.07461560      -0.02344970
O       22.13670000      21.49310000       1.13867000       0.00516390      -0.02948220      -0.02039700
H        0.06968000      19.72600000       0.91516800       0.00261723      -0.00004514      -0.00902345
H       21.69700000      21.50200000       2.88984000       0.00178864       0.01371590       0.01378170
O       12.10360000      11.55080000      21.71886600       0.00396636      -0.05689870       0.09334160
H       12.54580000       9.97326000       0.84472900      -0.00377907       0.06033060      -0.07287700
H       10.98260000      12.49710000       0.38372300       0.00254194       0.00193130      -0.01238940
O        0.73944500       2.12298000      11.10670000       0.02923780       0.03524080       0.03624550
H        1.28369000       3.54182000      12.28560000      -0.00975521      -0.03363770      -0.03418380
H       21.37894000       2.11846000      11.27180000      -0.00090393      -0.00368342       0.00639314
O       20.23600000       6.41506000       5.56776000       0.00605689      -0.02208700      -0.02188010
H       21.38260000       4.91160000       5.19643000      -0.02256590       0.03601800       0.00842900
H       18.77190000       6.34967000       4.46385000       0.01266870      -0.00695914       0.00263202
O        3.20787000       9.01980000       0.60446100      -0.04162510       0.02247300      -0.01454240
H        2.25193000       8.58832000      21.45667300       0.00493887       0.00973712       0.03811530
H        1.10293000       9.96535000       2.62781000       0.02546130      -0.00488186      -0.02425650
O        1.80946000       4.59564000      17.73080000      -0.04391630       0.02311070      -0.03714280
H        2.13850000       3.15390000      18.74860000       0.00753559       0.01391690       0.00529359
H       21.72732900       4.16533000      16.34690000       0.00241867       0.02233210       0.01692420
O       10.45350000      14.27040000      12.32110000       0.00803239      -0.03938690      -0.05740730
H       10.70020000      12.96190000      10.70210000       0.00622167       0.04217220       0.07237330
H       12.14830000      14.51290000      13.00050000      -0.00984598      -0.00520700      -0.00523911
O       16.15870000       2.41976000      17.65920000       0.02022040      -0.04324380      -0.00370744
H       17.58240000       1.16748000      17.27900000      -0.03087890       0.02405450       0.00514330
H       14.54970000       1.33938000      17.98510000       0.01064140       0.01293790       0.01116230
O       18.00300000      16.19410000       1.56510000       0.00540393      -0.04165230       0.00420964
H       19.74430000      15.84120000       0.87166600      -0.02115060       0.00688257       0.00196817
H       17.13650000      14.47790000       1.87201000       0.01456700       0.04310940      -0.00702322
O        2.30085000       3.68108000       6.06662000       0.02266640       0.00598291       0.00883127
H        3.14732000       4.84269000       4.82811000      -0.00348868      -0.02902850       0.01527080
H        3.62246000       3.04598000       7.33002000      -0.02341280       0.01936430      -0.02919440
O        5.68257000      15.83250000      19.58880000      -0.00867183      -0.01470980       0.03864150
H        7.50698000      15.89790000      19.17900000       0.00229978       0.02083830      -0.00450341
H        4.79538000      15.88720000       0.21048000       0.01722160      -0.02652280       0.01569920
O       10.58030000       9.40525000      17.68250000      -0.02143510       0.02638060       0.01860720
H       10.63480000      10.51120000      19.28690000       0.01039380      -0.02261880      -0.03100300
H        9.27968000      10.15100000      16.63830000       0.01906260      -0.00126090      -0.00819768
O       13.26300000      17.77640000       5.54104000      -0.00724809      -0.00840726       0.03565580
H       13.21870000      17.98940000       7.44195000      -0.00628516       0.00958956      -0.03260500
H       14.79520000      18.58650000       5.01412000       0.01893230       0.00694405       0.02229910
O        3.48178000      12.49890000      13.29300000      -0.01792550      -0.01133030      -0.02184650
H        3.02222000      10.99030000      12.37660000       0.00105729      -0.01151330       0.01594890
H        3.59861000      13.59540000      11.83630000       0.00848190       0.01529720       0.01620190
O        0.41544600       9.54837000      18.04350000       0.04221260      -0.02093930      -0.00624595
H        1.31960000       7.85780000      17.77770000      -0.02887820       0.02231270       0.00451824
H        1.88520000      10.63390000      18.16550000      -0.01142720       0.00332326      -0.00999706
O       12.56870000      10.69720000       9.32026000      -0.00625351       0.01455500      -0.01134030
H       13.70600000      11.81800000       8.19894000      -0.02680940      -0.01506520       0.01954190
H       11.04970000      10.02740000       8.45105000       0.01941960       0.01073070      -0.00943584
O        8.22117000       0.79189400      20.88540000      -0.04961660       0.02081400      -0.00470708
H        6.67081000       0.37311700      19.94060000      -0.01027360      -0.00828621       0.02653700
H        7.97141000       2.56705000      21.47960000       0.00643460      -0.01456410      -0.01076010
O       17.14380000      10.58170000      16.53130000       0.02679730       0.00002565      -0.03609830
H       17.44410000       8.95650000      17.30130000       0.00779276       0.01125590       0.00062796
H       17.86750000      10.54190000      14.76280000      -0.02593070      -0.00265086       0.04253900
O       10.57340000      20.92990000      14.16930000      -0.09943100       0.04333530       0.01279090
H        8.16579000      21.87220000      14.58030000       0.10525000      -0.03875360      -0.00921745
H       11.42990000      20.91690000      15.78100000      -0.00787522       0.01099490       0.02224250
O       19.00550000       9.34657000      21.32180000       0.00423507       0.00566117       0.00323873
H       20.54730000       9.83475000      20.47010000      -0.00394460      -0.00846732      -0.00630828
H        7.36724000       1.50984000      17.77030000       0.02178950       0.00181379       0.00297411
O        4.84317000      14.85210000       2.49415000       0.03078670       0.02874630      -0.07067230
H        3.40248000      15.02270000       3.63612000       0.02314520       0.00220606       0.01390220
H        6.73605000      14.61600000       3.05694000      -0.04177650      -0.01552920       0.00302180
O       14.80550000       3.22239000       4.43038000       0.01051040      -0.01804960      -0.04990340
H       14.94370000       1.50654000       3.71759000       0.00591276       0.02601920       0.00569111
H       14.21800000       2.90743000       6.11265000      -0.00043310      -0.00183969       0.02083040
O       14.47600000      14.31960000      17.90730000       0.04292200      -0.01223870      -0.00039146
H       16.08860000      13.88120000      17.01590000      -0.03141860       0.00512829       0.01189600
H       14.37940000      12.82470000      19.01240000      -0.00629831       0.01924240      -0.01214260
O        3.09766000       0.83978000      19.55600000       0.01369030      -0.04497930      -0.00379402
H        2.63742000       0.53628000      17.77720000       0.01085300      -0.01476610       0.01782830
H        1.88124000       0.03628000      20.64330000       0.00025580      -0.00530389       0.00241152
O        6.96272000       2.12868000       8.17834000      -0.00254380       0.01340520      -0.03868460
H        7.37195000       2.70275000       6.36692000       0.00181098      -0.00862336       0.04755850
H        7.64670000       3.38962000       9.39667000      -0.00451940      -0.00522930      -0.00883645
O       18.26620000       1.16998000      11.31980000      -0.02769700      -0.00280939      -0.03623080
H       16.41160000       1.16328000      10.94740000       0.02476640       0.00574557       0.01789420
H       18.69610000       1.35798000       9.53358000       0.00366111       0.00006980       0.01433020
O        8.01374000       5.76107000      11.49820000      -0.04702700      -0.01795190      -0.00898040
H        9.67350000       6.35138000      11.79880000       0.01771400       0.00155502       0.00901099
H        6.87872000       5.80591000      12.98800000       0.01641540       0.01251980       0.00467600
O       17.60900000      11.00320000      11.51430000       0.03335050      -0.01786500      -0.02878960
H       16.63890000      11.38350000       9.98121000       0.01199890      -0.01055590       0.02319700
H       18.92510000       9.61555000      11.18380000      -0.03197850       0.01562280      -0.00204177
O       14.05060000       2.03828000       8.82742000      -0.03551160      -0.01446860       0.03943380
H       13.07240000       0.54899800       9.38033000       0.00320828       0.01528020      -0.00993604
H       13.25010000       3.49885000       9.78483000       0.01188490      -0.00831922      -0.00860642
O        9.55548000       3.76995000       4.20293000      -0.00721211       0.01451410      -0.01411720
H       10.80020000       2.45144000       3.93583000      -0.00672626       0.01801240      -0.01130100
H        8.94004000       4.63182000       2.64746000       0.00912164      -0.03026780       0.02482680
O        5.00775000       7.34130000      15.36510000       0.02581140      -0.00479117       0.02378980
H        4.04948000       6.03964000      16.35520000       0.00677154       0.01190970      -0.01055230
H        6.55165000       9.31451000      17.86240000      -0.04808430       0.04028190       0.01005530
O       20.30910000      15.46650000      13.20220000       0.02005230      -0.03056820       0.02626970
H       21.12900000      16.04400000      14.71430000      -0.00199840       0.01537070       0.00601380
H       20.89950000      13.70170000      13.34480000      -0.01807360       0.01745130      -0.00971920
O       13.66590000       7.30091000       1.72142000      -0.01526160       0.01977380      -0.00159590
H       12.28580000       6.69143000       0.71300900       0.00602009      -0.01161520      -0.00895425
H       14.62220000       5.84278000       2.20658000       0.00192060      -0.01510970       0.01030010
O       15.67250000      13.45780000       6.91858000      -0.04053510      -0.05224550      -0.05554360
H       14.43170000      14.55950000       5.97483000       0.02871230      -0.01784610       0.01746720
H       15.25080000      10.98930000       5.46182000       0.03636790       0.08250980       0.01284280
O       19.89040000       4.89381000      15.72150000      -0.01115780       0.02066280      -0.03174280
H       19.82990000       5.60167000      13.94860000      -0.00202675      -0.01678690       0.03105220
H       18.14070000       4.51193000      16.48190000       0.02695490      -0.00763413      -0.01013940
O       14.31300000       6.55693000      15.56640000      -0.00482508       0.01308490       0.01539270
H       13.64400000       7.84653000      16.74130000       0.00255978      -0.01557070      -0.01984050
H       14.50140000       4.99350000      16.47230000       0.00005840      -0.00441380       0.00284039
O       13.53320000      18.48750000       0.55970600       0.10730800      -0.01307440       0.07162830
H       13.63850000      18.82650000       2.72637000      -0.02545010      -0.01366770      -0.09926580
H       14.90060000      16.95660000       0.37984000      -0.04951870       0.04405900       0.00061465
O       10.04330000      19.08270000       9.98005000       0.01232360      -0.02656170      -0.06895160
H       10.29310000      19.56860000      11.67090000       0.00663534       0.00777036       0.03388750
H       10.62970000      17.33340000       9.90867000      -0.01480150       0.01378230       0.01337070
O       12.37290000      22.23650000      19.19330000       0.13686500      -0.02238230      -0.07316780
H       16.44210000      19.83280000       0.18218000      -0.05542280      -0.00691369       0.00440480
H       10.86530000      22.38390000      19.83120000      -0.09708200       0.01261890       0.04386060
O       21.16860000      22.36500000       5.86961000      -0.10344600      -0.13503600       0.04067110
H       21.19740000      21.31790000       7.53364000       0.01093290       0.01668370      -0.03162110
H       22.29550000       1.07378000       6.10062000       0.10641700       0.11293100       0.01818350
O       17.03560000      11.00290000       2.49913000       0.08010080       0.17914500       0.13612900
H       18.52230000      12.14880000       1.88625000      -0.04360810      -0.08563200      -0.00606562
H       16.26600000       9.75209000       1.83335000      -0.04813240      -0.11754300      -0.10672700
O        5.73345000      11.05510000      19.00050000       0.03532400      -0.02302000       0.00342109
H        5.17753000      10.48050000      20.79510000      -0.00208982       0.00390437      -0.01261220
H        6.54501000      12.95470000      19.05830000      -0.03484570      -0.03551440       0.00275344
O        4.41671000      21.04720000      10.62800000       0.01821200       0.01081810      -0.02915050
H        5.50468000      21.38070000       9.13873000      -0.00406493       0.00003648       0.02409360
H        3.39539000       0.15408000      10.72700000      -0.00958738      -0.01473640       0.00908027
O       22.39420000      10.80000000       4.44493000       0.02306150      -0.11633300      -0.04905330
H       21.95240000      12.26190000       5.04438000      -0.01464310       0.13746600       0.03728300
H       21.18690000       9.74890000       5.31666000       0.00014774      -0.03441340      -0.01523660
O        0.74208700      16.00200000      22.26070000       0.00492287      -0.03235420       0.04542840
H        0.74023200      15.88060000      20.47830000      -0.00368556       0.00058924      -0.04559520
H        1.66578000      14.40780000       0.22558000      -0.02269370       0.02237810      -0.00793093
O        2.98683000       7.23856000      11.14840000       0.01681030       0.00114358       0.00324575
H        4.43485000       6.49451000      10.29120000      -0.01408900       0.00936259       0.00002021
H        3.74948000       7.50338000      12.93990000      -0.00178323      -0.00400053       0.00948624
O        5.46148000      16.33800000      11.41180000       0.00828837       0.04244920      -0.00457248
H        7.10804000      15.64340000      12.13900000      -0.03176360       0.03111850      -0.01463690
H        5.13252000      18.45060000      11.30320000       0.02738910      -0.06818640      -0.00061852
O       20.76870000       6.76830000      10.35930000      -0.01999610       0.03312850      -0.01530080
H        0.15068000       7.04729000      10.69660000      -0.00132625      -0.00385311      -0.00923005
H       20.41330000       7.20184000       8.51329000       0.00963471      -0.02636020       0.04136940
O       20.48360000      14.52760000       8.40296000       0.16457000      -0.03069740       0.05271270
H       20.05860000      13.03350000       9.33246000       0.01581480      -0.00582444       0.02279740
H       19.03100000      14.63150000       7.79607000      -0.19022900       0.03429680      -0.09156000
O        4.34291000       8.77631000       6.37573000      -0.02370270       0.03897770      -0.00610250
H        3.77363000      10.55950000       6.19600000       0.02164080      -0.02334060       0.00308093
H        2.65261000       8.09790000       6.57056000       0.01776830      -0.01373420       0.00784460
O       15.51090000      17.72760000      13.01880000       0.01388440      -0.01013850      -0.01531740
H       17.18600000      17.27620000      13.64450000      -0.01494550      -0.00062870      -0.00474324
H       14.53690000      18.36930000      14.36220000      -0.00391389       0.00599325       0.01443330
O       20.38140000      22.07430000      16.01690000      -0.00436509      -0.01497080      -0.01172510
H       20.12480000      21.23700000      14.36090000       0.00540165       0.01712570       0.02130200
H       22.19800000      21.96920000      16.26130000      -0.01642320      -0.00675239      -0.01101910
O        2.83876000      14.17190000       7.01184000       0.02191130       0.04841970       0.03914250
H        1.91574000      15.67670000       7.65185000      -0.00602234      -0.02475960      -0.01361380
H        4.29121000      14.53770000       8.20281000      -0.00952757      -0.01113560      -0.01939000
O        9.46868000       9.06999000       5.91719000      -0.01332180      -0.07634050       0.02474430
H       10.59340000       7.41502000       5.58819000      -0.05383500       0.05004590       0.01057410
H        7.63658000       8.65225000       6.70494000       0.05239080      -0.00261469      -0.03175420
O       17.12260000      21.20400000       3.75248000       0.00153502      -0.04762940      -0.00239100
H       17.83590000      19.49940000       3.49988000      -0.00526469       0.01288320      -0.00403803
H       18.43120000      21.84450000       4.92048000      -0.00068030       0.01784700      -0.00761377
O       22.30380000       3.93328000       0.15418000       0.02087520       0.05203990       0.04518210
H       21.54830000       2.45034000      22.28960000      -0.03996400      -0.07103190      -0.00101626
H        0.28078000       4.38630000      20.95430000       0.00935410       0.03179160      -0.03672710
O        5.02422000       4.60181000       1.97288000       0.00101725      -0.03371490      -0.01628420
H        4.17664000       2.98132000       1.72884000       0.00849919       0.00591085       0.01025130
H        4.29776000       5.42108000       0.53454500      -0.00435153       0.02523790       0.00290391
