192
Lattice="23.70937 0.0 0.0 0.0 23.70937 0.0 0.0 0.0 23.70937" Properties=species:S:1:pos:R:3:force:R:3 TotEnergy=-1103.02193 cutoff=-1.0 nneightol=1.2 pbc="T T T"
O        5.34150000       4.62126000      21.19790000      -0.22604700      -0.06870920      -0.03190110
H        6.77403000       5.26772000      21.24050000       0.19001100       0.09672260       0.00531109
H        3.91387000       5.90331000      20.69180000       0.04015450      -0.01924590       0.00623181
O       16.30000000       1.32394000       1.51511000      -0.04256480      -0.05390450      -0.05113150
H       14.52050000       1.19232000       0.69985300       0.03353620      -0.00987343       0.01474680
H       16.25900000       2.95918000       2.01726000       0.00990834       0.07006260       0.03090320
O       18.21550000      18.08080000       0.86348600       0.03309980      -0.09620700      -0.05350680
H       17.78740000      19.24840000       1.96722000      -0.01787810       0.07103400       0.11303900
H       17.63630000      19.03930000      23.23427300      -0.01293920       0.00738259      -0.05904540
O       17.22350000      21.15090000       4.38138000       0.06066480      -0.14160600       0.07901030
H       16.69980000      22.48710000       3.68251000      -0.04495230       0.16136100      -0.07993430
H       15.66100000      20.43680000       4.94045000      -0.00594178      -0.01290590       0.01567560
O        5.27331000      23.48761400       7.63165000      -0.00375123       0.20325600      -0.02407580
H        3.92874000       0.12811500       6.26202000       0.01962800       0.01373700       0.02798740
H        5.03173000      21.92290000       7.58307000      -0.01192890      -0.20914800       0.01112810
O       16.96330000      15.29390000       9.04161000      -0.00109892      -0.00721044      -0.00721851
H       18.26880000      16.56260000       8.93724000       0.00394916       0.00918532       0.01129650
H       15.52260000      16.03550000       8.22868000      -0.00191317       0.00433249      -0.00543836
O       10.17970000      16.55800000       1.64680000      -0.20875400       0.05444420       0.07646890
H       11.59860000      15.99220000       1.22317000       0.16728800      -0.08445990      -0.04930570
H        8.94091000      15.34520000       2.74495000       0.04018000       0.02985090      -0.02340410
O       23.65372200      19.56460000       6.30169000      -0.03012480      -0.03989840      -0.03752170
H       23.56704600      21.32260000       5.93546000       0.00717530       0.01469960      -0.00623492
H       22.99033700      18.78020000       4.67475000       0.01801330       0.01535290       0.04093840
O       16.64570000      11.92630000       5.26990000       0.18214000       0.03874100      -0.02984540
H       17.79880000      12.77650000       6.63269000      -0.04095440      -0.00682109      -0.04238950
H       15.23660000      11.61970000       5.99560000      -0.15271900      -0.02164210       0.06933080
O       21.01250000      12.00330000      15.76430000       0.02007680      -0.01114770       0.01032160
H       19.66120000      11.15640000      14.98720000      -0.02694090      -0.01520430      -0.01255670
H       21.27310000      13.55580000      14.86450000       0.00717135       0.02394620      -0.00341887
O        1.18922000       6.34379000      11.03900000      -0.01155360      -0.03623560       0.10660900
H        2.36166000       4.87962000      11.58220000      -0.01013570       0.02349840      -0.00132586
H        1.62689000       6.45217000       9.42252000       0.02000010       0.01257750      -0.10243400
O       15.46250000       0.54368900      19.10590000       0.07349610      -0.03566970      -0.09926460
H       16.33340000       2.05971000      19.03390000       0.00378647       0.03358720       0.00786304
H       14.33000000       0.31046600      20.29590000      -0.07875010       0.00691857       0.08484680
O        4.28310000       1.62400000      17.04250000       0.02949990       0.02257160       0.04921420
H        3.07840000       0.54189600      17.93580000       0.00573463       0.01235840       0.00148820
H        5.26870000       2.74445000      18.53490000      -0.04391000      -0.03455860      -0.04462320
O        1.37408000       0.30804300       4.62003000       0.12078800      -0.12199500      -0.06122870
H        2.28606000       0.18020400       2.76691000      -0.02154640       0.00862181       0.06045440
H        0.37793200       1.57254000       4.50253000      -0.09893970       0.12639600      -0.01134610
O        4.69975000      10.41710000       3.39526000      -0.01030110      -0.01066240      -0.04425520
H        4.21936000       8.97279000       4.28772000      -0.01994690      -0.02492010       0.01437910
H        5.17728000      11.57090000       4.60981000       0.01326260       0.03963680       0.02875140
O       11.19280000       6.24484000       5.27441000       0.04173670      -0.00441994       0.04370110
H       10.37110000       7.20687000       4.10279000      -0.02274020       0.06341530      -0.05315580
H       10.07260000       4.91137000       5.09065000      -0.01115120      -0.05895250       0.00979674
O       13.43760000       1.48272000      10.58800000       0.13580200       0.08335180       0.09624500
H       12.71490000       0.22059700       9.87710000      -0.06895430      -0.11948000      -0.06593240
H       15.11190000       0.64253800      11.48760000      -0.06213250       0.03288070      -0.02899550
O       11.69080000      11.44140000       7.14504000       0.03775970      -0.24745600      -0.23452500
H       10.58680000       9.51392000       7.22914000       0.05748920       0.08888650      -0.00271808
H       11.23660000      12.26660000       8.32639000      -0.08832500       0.15615400       0.24317200
O       20.18880000      19.11250000      10.34860000      -0.04461210       0.02184630       0.08123460
H       19.49740000      20.60950000      11.47990000       0.01261240      -0.03442570      -0.04475190
H       20.81930000      19.69700000       8.83296000       0.02371050       0.02213770      -0.03759960
O       22.71740000      16.56070000      14.08300000       0.06015240       0.01138390       0.02941080
H        1.28022000      17.03050000      14.47890000      -0.07470660      -0.00520415      -0.03793200
H       21.75860000      17.83050000      13.12250000       0.02718820      -0.01046720      -0.00505762
O        5.52121000      11.90660000      21.26320000       0.01533580      -0.04624480      -0.03352130
H        5.17409000      13.58320000      20.87710000      -0.01025720       0.05855100      -0.02096660
H        5.57015000      11.87530000      22.98567800       0.00009314      -0.00703540       0.06165590
O       13.04590000      19.09980000       6.09247000       0.14550500       0.00878111       0.12689400
H       12.02550000      20.18480000       6.91191000      -0.04151060       0.04882810       0.05397210
H       12.18830000      18.70780000       4.84263000      -0.11426200      -0.06699350      -0.18010500
O        7.59459000      21.80420000      14.79040000       0.01136640      -0.03344090       0.05103280
H        6.49889000      23.10799800      15.39740000      -0.00765976       0.01309590       0.00389024
H        8.09036000      20.95220000      16.50340000      -0.00565497       0.02009230      -0.05113650
O        4.51262000       2.82451000      12.18740000      -0.02075050      -0.02526500       0.02683040
H        4.61211000       1.47461000      10.89260000      -0.00319828       0.01039850       0.01533400
H        3.79950000       2.17500000      13.92990000       0.02731820       0.01295200      -0.04293600
O        9.87234000      14.53430000      11.06170000       0.27257100       0.06950670      -0.13032200
H       11.13290000      14.37230000      12.28800000       0.02099030      -0.00673433       0.02481960
H        8.46578000      14.26780000      11.49490000      -0.29377100      -0.06117910       0.09909590
O       19.44560000       8.85112000       8.74561000      -0.06736190       0.03656480       0.00162280
H       17.78710000      10.03030000       7.84571000       0.08443450      -0.04942670       0.03449150
H       20.89310000       9.89880000       9.35715000      -0.02583470      -0.00020145      -0.02468580
O        0.35006000      23.03124700      20.25720000       0.20679400       0.08732850       0.07833530
H       22.95830000       0.37304200      20.97700000      -0.05181830       0.07247350       0.05633520
H       23.09510700      22.13360000      19.45430000      -0.14264800      -0.16466200      -0.13604900
O       21.13240000       9.50601000      20.99750000       0.01534400       0.00103681      -0.01243110
H       20.73910000      10.63600000      19.55090000       0.01638600      -0.01217510       0.01955990
H       23.01280000       9.03106000      20.85770000      -0.02960440       0.01223180      -0.01402470
O       17.39920000       6.29550000      18.50160000      -0.04810250      -0.03467210      -0.04669540
H       17.38360000       6.72750000      16.63510000       0.01413800       0.00770493       0.04108270
H       18.55900000       7.09008000      19.52430000       0.05140650       0.03348320       0.00954331
O        4.64200000      18.42390000       7.97354000      -0.00212106       0.00621182      -0.07384840
H        5.15061000      18.24600000       9.59821000       0.00983202      -0.01249360       0.06890580
H        2.82562000      18.34760000       7.88250000      -0.00354554      -0.00203895      -0.00074975
O       21.92410000      18.64360000      18.78940000      -0.06205360       0.03666530       0.06975800
H       21.93080000      17.90970000      17.24110000       0.01440680      -0.03681080      -0.07174160
H       20.00450000      18.69020000      19.11210000       0.04485860       0.00074724       0.00120327
O       10.07140000      20.10350000      10.35330000       0.02099600       0.07409030      -0.03261420
H        8.98830000      21.03920000      11.42630000      -0.00710763      -0.00115410       0.01615060
H        9.92822000      18.42140000      10.58460000      -0.00991377      -0.07091430       0.01584960
O       13.21690000      15.18380000      18.89580000       0.19303600       0.10421800       0.10491400
H       13.78720000      14.50930000      20.67210000      -0.01915470       0.00556329      -0.03096480
H       11.94740000      14.47690000      18.30320000      -0.17141200      -0.10853300      -0.07227610
O        8.92952000       1.27496000       4.47455000      -0.01076790      -0.01463530       0.03488250
H        8.02339000       0.84530100       6.24768000       0.01905730      -0.00404488      -0.06297630
H        9.28281000      23.45378400       3.43778000      -0.00676646       0.01630260       0.02402070
O        9.44311000      19.14090000      19.61950000       0.04344320      -0.06684990      -0.08693340
H        9.48542000      20.03240000      21.08360000       0.00047084       0.03548250       0.06143700
H       11.00320000      17.96680000      19.53760000      -0.04160180       0.02940270       0.00374392
O       10.51430000       5.94432000      21.49280000       0.00074548       0.00068608       0.08448040
H       11.74970000       6.90428000      22.64000000      -0.01953320      -0.02035630      -0.02358560
H       11.15930000       6.54633000      19.98140000       0.01596170       0.00352570      -0.05646670
O        2.27621000       6.45877000       6.23501000      -0.03719400      -0.00328374      -0.03270270
H        1.07863000       5.70816000       4.87411000       0.01078350       0.02944810       0.02110640
H        3.63365000       5.36132000       6.11110000       0.03415890      -0.02475790       0.00291781
O        8.68653000      21.02190000       0.28301000      -0.05240530      -0.04097920       0.02278450
H        9.02813000      19.16870000       0.72054800       0.02140150       0.01902580       0.00142232
H        6.78149000      20.76060000       0.37838700       0.03010690       0.02641710      -0.00622635
O        9.12694000       9.27436000       2.10466000       0.26755000      -0.02881270      -0.03809980
H        9.37468000       8.87186000       0.36870300       0.00423406      -0.00157270      -0.00707069
H        7.61235000       9.42956000       2.26223000      -0.26664300       0.03426550       0.03554960
O       16.75200000       8.90242000      13.49850000       0.03264870       0.01330600      -0.07098920
H       15.78860000      10.52530000      13.14130000       0.01606700      -0.03207970       0.00749424
H       17.92400000       8.57050000      11.60870000      -0.04409990       0.01797120       0.05980800
O       16.71850000      19.32300000      20.10350000      -0.06102490      -0.08661760      -0.03370680
H       15.13060000      18.36340000      19.23540000       0.06194120       0.01456070       0.03650380
H       16.26420000      20.87340000      19.49890000      -0.00196853       0.07283150      -0.01692060
O        1.98091000       9.98793000      14.42480000      -0.09346220       0.00699122      -0.01280870
H        1.81814000       8.78158000      12.94660000       0.01582320       0.00135512       0.02094190
H       23.61081700      10.60850000      14.32550000       0.07522340      -0.00970911       0.02454550
O        9.16966000      11.75000000      17.63310000      -0.00731304      -0.04635440       0.02468190
H        8.20357000      11.64250000      19.30260000       0.01342810       0.00511118      -0.03384800
H        9.51586000       9.91607000      17.23380000       0.00164376       0.03840950       0.00643388
O        5.76404000      13.11870000      14.03840000      -0.02543600      -0.00843517       0.01010540
H        4.46146000      12.05530000      14.94720000       0.01156250       0.02116150      -0.03182950
H        7.22572000      12.75620000      15.00940000       0.02089190      -0.00323986       0.01741030
O       14.47640000      14.00760000      23.66405800       0.03421090      -0.05863130       0.00841396
H       14.83430000      11.91880000       0.32660600      -0.01154760       0.09186130      -0.02434900
H       16.01500000      15.10540000       0.22077700      -0.01982620      -0.02520340       0.00493631
O        2.26819000       8.55199000      19.48360000       0.00010690       0.02274680      -0.07141740
H        2.25050000       9.26072000      17.29290000      -0.00935888      -0.03645770       0.05483720
H        3.34074000       9.92262000      20.08950000       0.00130458      -0.00277935       0.01043340
O       23.56645800      11.48090000       7.61159000      -0.04447200       0.05924420      -0.02032730
H        0.87007800      10.21460000       8.08528000       0.05509090      -0.05849890       0.02366330
H       23.07134400      10.99160000       5.93488000      -0.00364389       0.00451644      -0.00519439
O        3.35449000      19.81870000      23.36131100       0.04869070       0.08836930      -0.05985070
H        2.47244000      20.99860000      22.06080000       0.02969590      -0.01172590       0.03083570
H        1.97412000      18.88890000      23.58428700      -0.07773670      -0.07138040       0.03548410
O        7.37424000      14.48360000       5.11610000       0.05161260       0.02003340       0.06239560
H        6.78421000      16.10740000       5.98389000       0.00047255      -0.03220640      -0.01582310
H        9.00025000      13.99400000       6.25128000      -0.05859160       0.01097000      -0.04503980
O       20.72590000       2.32723000      22.58960000      -0.05082360      -0.01215960      -0.00895381
H       19.08310000       1.41578000      23.16215200       0.03650410       0.02273350      -0.00052519
H       20.04300000       3.33425000      21.20630000       0.00942911      -0.00432140       0.00897410
O       22.49340000       5.75308000       2.80475000      -0.01320740       0.09837340       0.02943730
H       21.79980000       7.59649000       2.15864000       0.02017840      -0.04356740       0.05334410
H       22.22800000       5.11592000       1.25737000      -0.00653406      -0.06171530      -0.07079510
O       12.21350000       6.59864000      17.02150000       0.01199450       0.04109280       0.04167190
H       11.55900000       5.60345000      15.75840000      -0.03947860      -0.03904880      -0.04570900
H       13.90240000       6.71542000      16.51240000       0.02003430       0.01084140      -0.00022818
O       20.25960000       3.36756000      10.63260000       0.06570680      -0.01065940      -0.00273993
H       22.15100000       3.82326000      10.47810000      -0.04763880      -0.01009670       0.00704742
H       19.55350000       5.00057000      10.62500000      -0.01605170       0.01731400      -0.00337325
O       11.87690000       0.90619300      22.79220000       0.01939910       0.06572820      -0.01020470
H       10.45010000      23.53112600      22.94090000      -0.01716480      -0.00312824       0.00520292
H       11.46320000       2.81764000      22.43930000      -0.00470919      -0.05285190       0.00198889
O        4.97963000      16.56450000      19.65720000       0.00499077       0.05031300       0.03951040
H        6.61313000      17.32430000      19.22580000      -0.00211426      -0.01372390      -0.00620245
H        4.68675000      17.90700000      21.10920000      -0.00886356      -0.04176070      -0.03240390
O       22.97090000      16.53920000      23.50966600       0.00651590      -0.00968161       0.03668630
H       21.27850000      17.16560000      23.53434700      -0.01327350       0.00170662       0.01164770
H       23.46985500      16.94810000      21.88850000       0.00962016       0.00220210      -0.04697920
O       20.75970000      10.64970000       2.42029000      -0.00562597      -0.00301041      -0.04147720
H       21.02640000      10.64570000       0.51048800      -0.00754287       0.00799001       0.03184870
H       18.97060000      11.06240000       2.66558000       0.01897950      -0.00207242       0.00104120
O        5.15246000       1.28833000       1.09046000       0.02805000      -0.04088000       0.10195800
H        6.71652000       1.73306000       2.23363000      -0.04479940      -0.01389770      -0.02545250
H        5.24744000       2.25104000      23.40476000      -0.00021838       0.04958530      -0.06470570
O       14.39350000       8.69864000      22.60260000       0.05329270      -0.02389320      -0.07220120
H       15.62200000       7.81967000      21.01180000      -0.05754050       0.03741800       0.05713430
H       15.26190000       8.11770000       0.36791400       0.00828020      -0.01478960       0.02170280
O        4.23505000      17.66650000      13.24420000       0.02809310       0.00946065       0.02611480
H        4.95633000      19.45730000      13.64650000      -0.00797426      -0.06120670       0.00081349
H        5.32478000      15.96950000      13.88780000      -0.03435570       0.04707250      -0.01458250
O       16.00680000       6.79649000       3.45130000      -0.13360200      -0.13803800      -0.04308440
H       16.75300000       8.15616000       3.94137000       0.05734910       0.11525800       0.05597770
H       13.99830000       6.53328000       4.14446000       0.07237560       0.01418580      -0.01093880
O       10.16670000       4.17123000      13.40940000      -0.12125900       0.00306901       0.05728640
H        8.53132000       3.02255000      13.53710000       0.06250520       0.04190920      -0.01067250
H       11.28540000       3.46299000      12.34220000       0.05252900      -0.04559700      -0.05335080
O       14.50170000      13.99420000      13.08580000      -0.04954010      -0.02846380       0.16640600
H       15.46460000      14.68920000      11.90240000       0.06820720       0.04886300      -0.06811230
H       15.01250000      14.65440000      14.99640000      -0.02001490      -0.02494820      -0.08410660
O       18.04460000      23.37123100      13.09330000       0.04661860      -0.00706560       0.06029290
H       18.37160000      22.70710000      15.10770000      -0.01151230       0.04297630      -0.09488570
H       19.36520000       1.11536000      12.33810000      -0.03778160      -0.03302690       0.02928590
