192
TotEnergy=-1103.81754000 cutoff=-1.00000000 nneightol=1.20000000 pbc="T T T" Lattice="22.41016000       0.00000000       0.00000000      -0.00000100      22.41016000       0.00000000      -0.00000100      -0.00000100      22.41016000" Properties=species:S:1:pos:R:3:force:R:3:Z:I:1
O               2.61451000     -0.20043200     13.07100000     -0.00939554      0.00548202     -0.00998045       8
H               3.48936000      0.31768600     14.57800000      0.00601822      0.00229151      0.00243420       1
H               2.67983000      1.13808000     11.82430000      0.00425214     -0.00477683      0.00632731       1
O              13.76200000     15.15300000      2.85969000      0.00116846      0.00138145      0.00150689       8
H              14.03700000     16.97760000      3.00991000     -0.00138425      0.00227508     -0.00017625       1
H              14.53610000     14.65730000      1.24900000     -0.00039113      0.00283351      0.00329165       1
O              14.37460000     19.95860000      4.15458000     -0.00038719     -0.00184453     -0.00214525       8
H              13.52750000     20.33080000      5.73100000      0.00129952     -0.00025390      0.00420758       1
H              13.43930000     20.97160000      2.88385000      0.00063822      0.00479576     -0.00317829       1
O               9.49466000     18.50950000     13.93330000      0.00461511     -0.00483903      0.00117288       8
H               8.70362000     17.66600000     15.35920000      0.00031668     -0.00059095      0.00241567       1
H              10.78260000     17.35190000     13.26290000     -0.00509988      0.00473277      0.00304518       1
O              18.89730000      6.17998000      0.42054500     -0.01066540      0.00643890     -0.02357440       8
H              20.01020000      7.75681000      0.34749000     -0.00563105     -0.00546287     -0.00069282       1
H              17.43740000      6.55814000      1.46523000      0.00492598     -0.00281522     -0.00649539       1
O               3.33118000      7.26911000     10.24830000     -0.00112194     -0.00137259     -0.00348721       8
H               1.63580000      7.80626000      9.69870000     -0.00229439      0.00008632     -0.00212934       1
H               3.50506000      5.49100000      9.83733000      0.00522536      0.00346341     -0.00077137       1
O              19.73140000     17.38850000      9.16967000      0.00205691      0.00096323     -0.00288669       8
H              19.10870000     18.98690000      9.87794000      0.00050095      0.00081043     -0.00149847       1
H              20.61950000     17.96090000      7.66619000     -0.00017038     -0.00115520      0.00133034       1
O              21.68780000      1.27272000      6.48075000      0.00480997      0.00214014     -0.00364409       8
H              21.97540000      2.29042000      4.95658000     -0.00245264      0.00048586      0.00250281       1
H              20.77270000     -0.21530500      5.82639000      0.00424774      0.00044600      0.00207836       1
O               3.10042000     13.88430000      7.48608000     -0.00467505     -0.00304119     -0.00318132       8
H               2.47751000     13.73490000      9.21131000     -0.00013977      0.00104592     -0.00535240       1
H               4.78928000     13.13800000      7.59590000     -0.00229660      0.00406907      0.00405622       1
O              15.56000000      1.13932000     20.13620000      0.00356295      0.00061464     -0.00062475       8
H              16.24590000     -0.27988200     19.19560000      0.00561657     -0.00144648      0.00224458       1
H              15.01720000      2.10316000     18.70900000     -0.00855799      0.00006175      0.00718361       1
O              19.35210000     19.87710000      4.31250000     -0.00247065      0.00122195     -0.00095493       8
H              19.65940000     18.70080000      2.93000000      0.00516642     -0.00157019      0.00107111       1
H              17.53140000     20.14030000      4.21347000     -0.00146447      0.00058839      0.00415289       1
O              19.77830000     12.38770000     15.61690000     -0.03688140     -0.02163910      0.01247120       8
H              18.95580000     13.92500000     16.22690000      0.00020266     -0.00116222     -0.00316246       1
H              18.33700000     11.01960000     15.59580000      0.02509310      0.02614180     -0.01190340       1
O              13.62050000      9.94126000     19.57360000     -0.00223595     -0.00579200     -0.00313535       8
H              13.56760000      8.44608000     20.67480000     -0.00318824      0.00187437     -0.00889120       1
H               9.13681000     10.00680000     17.57490000      0.00382670      0.00696692     -0.00633700       1
O               3.36561000      7.47760000      2.82782000      0.00531615      0.00082212     -0.00581546       8
H               4.54175000      7.19842000      1.39128000     -0.00355682      0.00308339      0.00666569       1
H               2.10830000      8.65732000      2.15267000      0.00453289     -0.00529459      0.00058185       1
O              21.69330000     18.70260000     14.69070000      0.00034249      0.00568382      0.00239243       8
H              22.51450000     19.80320000     13.47610000     -0.00043878     -0.00301699      0.00012650       1
H              20.19050000     18.02870000     13.95680000      0.00200850     -0.00095689     -0.00148014       1
O              16.14490000     13.94150000     20.95150000     -0.00255733      0.00276939     -0.00186026       8
H              15.98680000     15.03330000     19.48360000     -0.00018529     -0.00092745     -0.00015853       1
H              15.17080000     12.40970000     20.54700000      0.00228190     -0.00086864     -0.00175277       1
O               9.01596000     10.92820000     15.98720000     -0.04152650     -0.01130740     -0.00772110       8
H               7.15153000     10.67420000     15.43870000      0.04035830     -0.00336191      0.00600033       1
H              11.27010000     10.23340000     13.63410000     -0.03163690      0.01972080      0.02475280       1
O               4.51580000      8.60703000     14.78620000      0.00887831      0.00278760      0.00907306       8
H               3.33499000      9.56810000     15.84000000     -0.00537807     -0.00269185     -0.00376076       1
H               3.81245000      8.09474000     13.13340000     -0.00392311      0.00439727      0.00076218       1
O               9.05160000      6.90054000     10.57700000      0.00283550      0.00058033     -0.00545892       8
H               7.70243000      7.55753000     11.59980000      0.00164519      0.00106455     -0.00370740       1
H               8.39903000      6.91363000      8.80484000      0.00281552      0.00056229      0.00443066       1
O              21.69030000     12.67180000      4.33025000      0.01410280      0.00852983      0.00776077       8
H              23.29920000     13.12420000      5.31322000     -0.03288020     -0.00068376     -0.01115430       1
H              20.47530000     14.06210000      4.24873000      0.02113870     -0.00908736      0.00294502       1
O               1.41948000     11.21570000     17.96040000     -0.00414342      0.00292498     -0.00026283       8
H              -0.21388100     11.70870000     17.13960000      0.00825579     -0.00460218      0.00153613       1
H               2.02328000     12.78100000     18.69160000      0.00331441      0.00120639      0.00306457       1
O              15.13420000      3.81240000      6.80129000      0.00554027      0.00837483     -0.00206824       8
H              14.63740000      2.10756000      6.68280000     -0.00428892     -0.01684420     -0.00244355       1
H              15.60570000      4.20590000      8.53487000     -0.00053186      0.00237057     -0.00324058       1
O              21.41380000      2.20137000     16.47660000      0.00841599      0.00532674     -0.00445372       8
H              22.09380000      1.07428000     17.72370000      0.00599082     -0.00731778      0.00637777       1
H              22.28260000      1.95460000     14.87200000     -0.00046219      0.00301120      0.00613102       1
O               9.75819000     19.29720000     20.98950000     -0.01003830     -0.00295112     -0.00199794       8
H              10.03390000     18.14470000     19.63980000      0.00511319     -0.00170581     -0.00386798       1
H               7.68938000     19.26710000     21.63050000      0.00356103      0.00374987      0.01307970       1
O              11.18040000     11.38330000      7.05902000      0.00964099      0.00066035      0.00578028       8
H              12.65910000     12.00140000      7.95646000     -0.01086290      0.00011519     -0.01084630       1
H              10.66210000     12.68570000      5.88657000      0.00011138      0.00376195      0.00206745       1
O              12.89450000     10.41680000     12.85650000     -0.02725080     -0.07037580     -0.05624050       8
H              14.03260000     31.50360000     -8.32632000      0.04105460      0.02219220      0.01153990       1
H              12.53780000      8.96932000     11.53450000      0.01370640      0.04053600      0.01331910       1
O               0.40014600      3.56523000      2.27353000     -0.00867531     -0.00137285     -0.00176697       8
H              -1.17847000      4.44995000      1.90205000      0.00894535     -0.00254403     -0.00263480       1
H               1.71419000      4.86593000      2.53514000     -0.00354789      0.00093462      0.00053422       1
O              13.20460000     22.12570000     13.80750000     -0.00249557     -0.00443385     -0.00469732       8
H              11.95350000     20.80370000     14.08670000     -0.00146819      0.00249608     -0.00114450       1
H              12.24550000     23.74900000     13.86550000      0.00312730     -0.00402348      0.00138564       1
O              21.27040000      9.09358000      9.26670000      0.00169495      0.00295143      0.00102628       8
H              21.69870000     10.79880000      9.96598000     -0.01243890     -0.01175210     -0.01255190       1
H              20.20910000      9.23110000      7.74417000      0.01075380      0.01131710      0.01598450       1
O               5.40286000      2.62986000      9.38236000      0.00171636     -0.00253749      0.00483310       8
H               5.65549000      2.08292000      7.65245000     -0.00099275     -0.00157633     -0.00272514       1
H               7.04063000      2.78368000     10.15440000     -0.00279129      0.00350221     -0.00318809       1
O              16.30350000      8.81017000     14.92190000     -0.03808220      0.06733680     -0.06183490       8
H              16.89840000      7.81456000     16.09490000      0.03863400     -0.07235810      0.07964980       1
H              14.47050000      9.41313000     18.04210000     -0.00261788      0.00354772      0.00351333       1
O              15.53580000     14.98640000      7.69681000     -0.00076818      0.00082140      0.00237380       8
H              15.12510000     15.27710000      5.92325000      0.00166316      0.00070297      0.00033452       1
H              17.11290000     15.86950000      8.15207000      0.00115580      0.00164551     -0.00590957       1
O              13.50390000     15.92840000     12.20860000     -0.00732457     -0.00345441     -0.00050775       8
H              12.91050000     14.21310000     12.02120000      0.00655811      0.00280014      0.00222226       1
H              14.06600000     16.35810000     10.50920000     -0.00134403     -0.00275513      0.00066847       1
O              12.08870000     22.57500000     23.21470000      0.00327303      0.00011395      0.00207492       8
H              13.49830000     22.96340000     22.04590000     -0.00343248      0.00076875      0.00576338       1
H              11.18670000     21.13820000     22.25150000     -0.00418658      0.00240832     -0.00106907       1
O              22.16630000      9.87539000      0.26608200     -0.00592963      0.00402895      0.00019319       8
H              22.03000000     11.28820000      1.50975000     -0.00338744     -0.00396519     -0.00402754       1
H              22.66260000     10.47670000     -1.41621000      0.00179593     -0.00033384      0.00442253       1
O               7.13269000      6.93150000     22.05930000      0.00333155     -0.00588602     -0.00105021       8
H               7.23602000      6.45093000     20.29430000     -0.00149975      0.00000120     -0.00335404       1
H               7.87189000      5.47647000     22.95920000     -0.00244615      0.00515776      0.00096171       1
O               6.59930000     12.36080000     -0.26625900      0.00073726     -0.00114448      0.00907314       8
H               6.43311000     10.60650000      0.15800300      0.00127891     -0.00509906     -0.00468729       1
H               7.69792000     12.98270000      1.06554000     -0.00239449      0.00476976      0.00071210       1
O              17.98760000      4.90157000     17.77570000      0.05784700      0.04687070      0.10166700       8
H              19.91060000      4.27731000     17.83910000     -0.03780830     -0.01300750     -0.04017410       1
H              17.76470000      5.31249000     20.04860000     -0.00349282     -0.00472581     -0.02997070       1
O              16.67760000     16.51700000     16.39370000     -0.00398377     -0.00148409     -0.00684017       8
H              16.94320000     18.35040000     16.43930000      0.00480028     -0.00010410      0.00663624       1
H              15.56390000     16.29720000     14.94600000     -0.00005944     -0.00394675      0.00213900       1
O               3.59235000     18.25300000     17.32800000     -0.00716174      0.00271309      0.00086637       8
H               4.47204000     16.69320000     17.05050000      0.00138027      0.00042532     -0.00375282       1
H               1.91857000     18.13750000     16.54470000      0.01019540     -0.00204007      0.00139187       1
O               4.34396000      0.56834100      4.78419000     -0.00017932      0.00967026     -0.00538296       8
H               4.33495000     -0.84212400      3.59207000      0.00091389      0.00052598      0.00681959       1
H               2.61707000      0.76815300      5.43323000      0.00886668     -0.00756942     -0.00722846       1
O              21.12600000      3.41153000     10.81810000      0.00307948     -0.00262625      0.00236201       8
H              20.51600000      5.12653000     10.77230000      0.00101787     -0.00310696     -0.00661485       1
H              21.42300000      2.78266000      9.05678000     -0.00279265      0.00685043      0.00432069       1
O              16.95020000     10.16270000      7.01831000     -0.00064000     -0.00112670     -0.00199430       8
H              16.61800000     11.95740000      7.27013000      0.00241006     -0.00134869     -0.00048858       1
H              15.86880000      9.61435000      5.65035000     -0.00129552     -0.00239330      0.00032041       1
O               7.38554000      5.24461000     17.12410000      0.00502340     -0.01233720      0.00854751       8
H               6.31341000      6.44961000     16.20750000     -0.00991795     -0.00802737      0.00102480       1
H               6.52308000      3.59676000     17.42890000      0.00197683      0.01560070     -0.00646060       1
O               7.91837000     15.34310000     17.92360000      0.00699246      0.03765190     -0.05066900       8
H               8.60189000     13.85890000     17.01410000     -0.01350590     -0.00618291      0.04028170       1
H               7.23765000     15.76180000     19.53090000      0.00490212     -0.03025880      0.01060640       1
O               5.62740000     19.26180000      0.53513600     -0.00217287     -0.00358070     -0.00444666       8
H              39.29140000    -18.09050000     16.51050000     -0.00820181     -0.02054620     -0.00819565       1
H               4.41373000     20.34630000     -0.25972900      0.00178072     -0.00168599     -0.00090896       1
O              10.82560000      3.77442000     13.75510000      0.00763060      0.00484794      0.00607354       8
H               9.69917000      4.36446000     15.10050000     -0.00300932     -0.00107893     -0.00138104       1
H              10.48180000      4.79495000     12.25950000     -0.00373843      0.00117986      0.00229278       1
O               8.57733000      3.09763000      2.57072000      0.00041790     -0.00238368      0.00183974       8
H               7.12764000      2.02227000      2.82835000     -0.00317437      0.00027175      0.00264398       1
H               9.95370000      1.95390000      2.02914000      0.00116363      0.00078715     -0.00168122       1
O               6.69986000     11.43250000      9.45214000      0.00111132      0.00088050     -0.00144230       8
H               5.57472000     10.01370000      9.19751000      0.00472890     -0.00185471      0.00210442       1
H               8.21940000     11.17150000      8.44757000     -0.00143027     -0.00312565      0.00514721       1
O               4.90230000     23.20630000     17.89710000     -0.00128326      0.00538734      0.00009384       8
H               5.28544000     21.41040000     17.84990000     -0.00190691     -0.00028353      0.00061223       1
H               3.63941000     23.33740000     19.21370000      0.00157823     -0.00391920     -0.00205143       1
O              16.05860000      6.57060000     10.65220000      0.00875611      0.01303050     -0.00363792       8
H              16.79430000      7.98279000      9.71746000     -0.00818066     -0.00704542     -0.01713210       1
H              16.60220000      7.18079000     12.28600000     -0.00282532     -0.00660872      0.01712560       1
O              22.37320000     13.54970000     11.61760000     -0.00154687     -0.00298052      0.00220993       8
H              21.51420000     15.01240000     10.89950000     -0.00065737     -0.00283982      0.00342481       1
H              21.49780000     13.10000000     13.21990000      0.00392235      0.00626480     -0.01497620       1
O              20.01990000     16.46900000      0.77587100     -0.00039832     -0.00354602     -0.00513952       8
H              18.86700000     15.29970000     -0.06440000      0.00327196      0.00504572      0.00371458       1
H              21.73870000     15.83540000      0.51818600     -0.00346929     -0.00041865     -0.00242636       1
O               2.09419000     15.02460000     21.60380000      0.00996800      0.00961767     -0.00409975       8
H               2.86518000     16.66180000     21.34790000     -0.00662202      0.01328390     -0.00754942       1
H               3.58095000     14.36770000     22.40740000      0.00558687     -0.02410650      0.00892810       1
O               0.58238700     22.33320000     21.16310000     -0.00187632     -0.00097605      0.00087459       8
H              -0.13520000     20.75480000     21.70030000     -0.00003187     -0.00144624     -0.00249812       1
H               0.49958800     23.43870000     22.64760000      0.00113112      0.00350333     -0.00349659       1
O              13.68220000      5.60237000     -0.34860100     -0.00534143      0.00341873      0.01145310       8
H              12.61450000      4.16121000     -0.44160500     -0.00462183     -0.01081210     -0.00889860       1
H              13.22300000      6.20244000      1.35150000      0.00552668      0.00949182      0.00158606       1
O               8.71649000     14.87750000      3.80479000     -0.00068269     -0.00064778     -0.00094998       8
H              10.38130000     15.36710000      3.19890000      0.00091585      0.00228178     -0.00328784       1
H               7.60123000     16.29430000      3.53750000      0.00116678      0.00140935     -0.00014963       1
O               7.54155000      6.96974000      5.82754000      0.00004236      0.00018661      0.00075507       8
H               8.03773000      5.48309000      4.87545000      0.00270645      0.00018697     -0.00130019       1
H               5.91903000      7.46024000      5.10814000      0.00234170     -0.00109857      0.00378286       1
O              17.19310000     21.46680000     16.28450000      0.00206866     -0.01337130     -0.00169964       8
H              18.77230000     21.90510000     15.52000000      0.00061919     -0.00114478     -0.00234814       1
H              15.80350000     21.52530000     15.03700000     -0.00083289      0.01032780      0.00237014       1
O              12.06710000     21.39820000      8.35244000     -0.01255840      0.00567351      0.00297478       8
H              12.05590000     22.71900000      9.59296000      0.00743783     -0.00232057      0.00272538       1
H              10.29630000     20.87650000      8.42126000     -0.00235512     -0.00608799     -0.00108969       1
O               7.17747000     19.91710000      9.69854000     -0.00253194      0.00901440     -0.00800420       8
H               7.76521000     19.33580000     11.34200000     -0.00247160     -0.00170430      0.00182935       1
H               5.99729000     21.27380000     10.05130000      0.00478848     -0.00894678      0.00073164       1
O              18.17240000     -0.64585400     10.98910000      0.00055260      0.00499398      0.00027794       8
H              19.11520000      0.96071700     10.86730000     -0.00261372     -0.00468684      0.00224243       1
H              16.42370000     -0.21730500     11.13900000     -0.00492549     -0.00218320      0.00013934       1
O              13.45190000      7.61994000      4.16045000     -0.00188511     -0.00366367      0.00066603       8
H              12.11140000      8.58633000      4.95217000     -0.00073141      0.00076002     -0.00118318       1
H              13.78310000      6.16957000      5.28931000      0.00122359      0.00140942     -0.00247437       1
O               2.38092000     18.70890000      6.14398000      0.00373944     -0.00041605      0.00539134       8
H               2.78195000     16.97740000      6.51977000     -0.00531554     -0.01209070     -0.00050220       1
H               3.86746000     19.46970000      6.85344000     -0.00350484      0.00548932     -0.00032992       1
