192
Lattice="24.6026 0.0 0.0 0.0 24.6026 0.0 0.0 0.0 24.6026" Properties=species:S:1:pos:R:3:force:R:3 TotEnergy=-1103.54117 cutoff=-1.0 nneightol=1.2 pbc="T T T"
O       23.52230000      22.43673000      20.80360000      -0.01270290      -0.07563290      -0.01004370
H       23.52790000      24.17474900      21.12380000      -0.02807240       0.02336890       0.00147558
H       21.91760000      21.31003000      20.75360000       0.03402540       0.05580680       0.00447465
O        1.58090000      23.55430000       5.57938000      -0.07333880       0.04660760       0.02304970
H        2.76630000      22.91870000       6.67691000       0.04040020      -0.02904100       0.00261529
H        1.47300000      23.30180000       3.83260000       0.02698670      -0.01826220      -0.03029050
O       10.96890000       0.36080400      11.95230000       0.05742810      -0.01929860       0.07957100
H       12.51320000       1.48257000      12.09180000      -0.02892870      -0.00109046      -0.01300830
H       11.45330000      24.01945000      13.69010000      -0.03095910       0.01929970      -0.06687970
O       18.16992000      16.25406000       0.39025300      -0.09739940       0.04769920       0.10831100
H       18.82163000      16.66641000      23.51525000       0.04701120       0.01717160      -0.09341860
H       16.96044000      17.91418000       0.76019000       0.04644590      -0.06083660      -0.00274051
O        7.38061000       6.16690000      19.70510000       0.04044900       0.06064690      -0.02196910
H        7.25893000       7.92580000      20.70480000       0.00636421      -0.04675240      -0.04337650
H        8.87010000       6.44660000      18.34410000      -0.04772000      -0.01012330       0.05960040
O       21.97723000      11.60800000      12.34740000       0.01253660       0.02213790      -0.01688640
H       21.47031000      10.80840000      10.76410000      -0.00582146      -0.00751709       0.01114720
H       23.05041000      13.02740000      11.69590000      -0.01085540      -0.02009400       0.01264150
O       21.81130000       0.49260000      12.39350000      -0.09648190      -0.02244340      -0.06231510
H       23.50120000       0.32230000      12.76350000       0.04676930      -0.00916448      -0.00425141
H       21.13140000      24.18530000      10.67390000       0.04383420       0.03401740       0.05794070
O       22.71046000      19.27530000      10.92140000       0.02323340      -0.01338640       0.05583370
H       23.81838900      17.81820000      10.67620000      -0.01768750       0.00704443      -0.02277010
H       21.81579000      20.00300000       9.59175000      -0.00386177       0.00281069      -0.03605730
O        5.35540000      14.48370000      18.25360000      -0.02008850      -0.04663750      -0.00166786
H        5.92990000      16.15170000      18.16550000       0.01452480       0.03393080       0.00403980
H        6.35390000      13.33520000      19.41670000      -0.00234317       0.01555990      -0.01074740
O        8.25569000      22.24500000      22.25060000       0.04240140       0.05146550      -0.05600520
H        9.97143000      22.98520000      22.53010000      -0.02522920      -0.01950110      -0.00656992
H        7.84432000      21.26280000      23.59170000      -0.01507990      -0.03709840       0.06107610
O       13.47260000       4.26273000       6.05598000      -0.08408890      -0.05171690       0.02455710
H       11.96410000       3.44470000       5.02208000       0.03193220       0.02262230       0.02940290
H       14.56190000       4.89312000       4.91309000       0.04913740       0.02925460      -0.04893600
O       13.51510000       7.42400000       0.42490000      -0.01052190      -0.03565310       0.01965760
H       13.88570000       5.78990000      24.21420000      -0.00478955       0.01915640      -0.00057079
H       14.06720000       8.71640000      23.95570000       0.00784312       0.02257720      -0.02189540
O       14.25800000      18.84900000      10.13900000       0.07137700      -0.03441820      -0.04852230
H       14.71190000      17.51640000       8.70040000      -0.02085950       0.04302850       0.04389450
H       12.57660000      18.70960000      10.61890000      -0.04146580      -0.00564993      -0.00047132
O        1.05340000      14.49310000      10.08430000       0.02982400      -0.00363231       0.04366020
H        1.20240000      13.44810000       8.61120000       0.00171535       0.00281248      -0.00610340
H        2.44000000      13.89160000      11.36310000      -0.03055130       0.01029800      -0.03773990
O        1.01680000       3.09962000      23.02183000      -0.01205090       0.03135100      -0.00767925
H        1.67603000       4.24341000      24.28077100       0.00064552       0.02336880      -0.00244497
H        1.87334000       1.72393000      23.66328100       0.02339810      -0.05529010       0.00868725
O       20.63870000      23.50530000       7.18350000       0.01499640      -0.01273440      -0.01499590
H       22.21570000      23.09420000       6.03910000      -0.06185100       0.01532700       0.02983450
H       18.77050000      23.40390000       6.68390000       0.04814430      -0.00683752      -0.00103396
O       14.01600000      12.83160000      23.76160000       0.06272100       0.03072570      -0.03578430
H       14.23520000      13.22320000      21.86530000      -0.02087130      -0.01980320       0.04302560
H       15.76120000      13.46180000      24.31120000      -0.03785540      -0.01241540      -0.00432969
O        7.51160000      14.19470000       3.82600000      -0.00447713       0.10119000       0.04761650
H        7.44940000      14.08960000       5.67760000       0.00353925       0.00448368      -0.00858974
H        7.56170000      12.63470000       3.24990000       0.00001178      -0.10478600      -0.04113380
O       18.23590000      18.50260000      13.99290000       0.06297780       0.04433280      -0.02606550
H       20.02130000      19.43140000      13.35830000      -0.07404770      -0.04236680       0.01211440
H       17.00380000      18.51200000      12.60200000       0.00748484       0.00970236       0.00346831
O        9.12130000       2.47120000       4.20031000      -0.00850890       0.02167010      -0.04238420
H        7.73460000       3.15580000       5.11422000      -0.00972983       0.00312982       0.01809780
H        8.66980000       3.20920000       2.45349000       0.01659650      -0.02577220       0.02177600
O        8.97300000      19.17640000      10.19050000       0.01027970       0.06530770       0.05249370
H        8.76850000      17.51970000       9.74790000      -0.01065390      -0.05708470      -0.01423800
H        9.16850000      19.32100000      12.10650000      -0.00309922       0.00047258      -0.03968110
O       14.06660000       4.41193000      12.81330000       0.01294940      -0.00768130       0.00088318
H       12.78230000       5.51784000      12.08270000       0.02185510       0.00135206      -0.01174320
H       15.82160000       4.63472000      12.12620000      -0.03854740       0.01033770       0.01578380
O        8.38029000       3.28007000      23.83799700       0.08864070       0.17912800       0.10375000
H        7.78524000       2.03950000      23.10914000      -0.08812430      -0.18677000      -0.09932250
H        8.36331000       4.58217000      22.55935000      -0.00045687       0.00399581      -0.00199548
O       20.74340000       4.52611000      23.67180000      -0.11691900       0.04682890      -0.04648400
H       20.43210000       4.95058000       0.73230000      -0.04007500       0.02753200       0.04444390
H       22.15360000       3.81086000      24.03630000       0.14353900      -0.07732450      -0.00090739
O       19.91133000      12.09670000       3.67690000       0.02360040       0.01482630       0.02226950
H       19.44529000      12.96660000       2.18630000      -0.00115363       0.01359250      -0.00994621
H       21.54914000      12.90110000       4.29760000      -0.03155250      -0.02361580      -0.00938424
O        8.28240000      14.18830000       9.16676000       0.01756500       0.02182460      -0.08611910
H        7.15547000      14.12330000      10.44620000      -0.03877280      -0.01498350       0.06285470
H        9.88634000      13.47910000       9.44147000       0.02099970      -0.01104580       0.02037670
O        6.52970000      19.62330000      18.08180000       0.00342358       0.02516610       0.00147358
H        5.11680000      20.74330000      17.41010000       0.03463740      -0.02791170       0.02570360
H        7.54460000      20.33900000      19.57190000      -0.03365840       0.00260955      -0.02539060
O        8.02860000       9.62600000       1.17930000       0.10021400       0.05971010      -0.03538400
H        9.90770000       9.18190000       1.21800000      -0.04732310      -0.00107384       0.00399571
H        7.04030000       8.46560000       1.92470000      -0.04188330      -0.06300100       0.02680330
O       12.25230000      11.80190000      19.04240000      -0.02227060      -0.09238110       0.05047070
H       12.36060000      12.94240000      17.71370000       0.01021520       0.02300370      -0.05230310
H       12.12870000       9.90480000      18.53480000       0.01844340       0.05188620       0.00476131
O        2.35516000      22.92760000       0.43540000      -0.07295850       0.01228090      -0.04032720
H        0.86461200      22.47150000      23.81080000       0.04474720       0.00886023       0.03316610
H        3.40611000      21.48690000       0.36180000       0.01957870      -0.02073800       0.00507767
O        0.05114500      12.30200000       5.12048000       0.00801235      -0.03722090       0.10738100
H        0.40680700      10.47210000       5.67661000      -0.00829374       0.04509400      -0.00495205
H        0.13133600      12.09510000       3.44611000       0.01201070      -0.00779957      -0.09740730
O        2.12203000       1.06441000      14.10480000       0.01229460      -0.01496340       0.04136030
H        2.40787000      24.10492100      15.10950000      -0.00352082       0.00836369      -0.02599150
H        2.11096000       2.25085000      15.52700000      -0.00398445       0.01013450      -0.01306880
O       12.82790000       6.25510000      18.26290000      -0.02935230       0.03683290       0.06606840
H       12.96670000       5.95640000      16.57720000       0.02598520      -0.02621680      -0.05483340
H       13.86260000       5.32430000      19.51710000      -0.00266428      -0.00536651      -0.02443540
O        3.88057000       3.58640000       7.12630000       0.03815620       0.07446640       0.02616930
H        4.63504000       3.16630000       8.73240000       0.00899272      -0.00125345       0.00022873
H        3.20173000       2.13230000       6.58170000      -0.04140560      -0.07338480      -0.03426760
O       11.89290000      16.45920000       2.47091000       0.00304451      -0.04758090      -0.03655380
H       12.88070000      15.47780000       1.07547000      -0.03288190       0.02114320       0.03278320
H       10.23970000      15.41810000       2.65084000       0.03080590       0.02808430       0.00615647
O       22.33970000       8.27960000      16.84620000      -0.00869889      -0.03004210       0.03424070
H       23.79750000       7.26890000      17.27100000       0.00542356       0.00055125      -0.00607504
H       22.82970000       9.45040000      15.63230000       0.00921634       0.02520480      -0.03060380
O       11.57930000       8.01120000       9.62169000      -0.03636800      -0.03095010      -0.04934390
H       11.74340000       6.86400000       7.94146000      -0.00010435       0.03753500       0.06029350
H        9.67220000       8.26810000       9.95823000       0.03961710      -0.01443180      -0.00935256
O        2.42290000       5.34452000      17.84260000       0.03420130       0.00551705      -0.00140639
H        2.46010000       4.38843000      19.38060000      -0.01235920      -0.00409761       0.01137350
H        4.21460000       5.97964000      17.94650000      -0.02485930      -0.00513827      -0.00500624
O        6.78330000       7.98650000      11.18200000      -0.06094790      -0.02639130      -0.01132910
H        6.22890000       6.20490000      11.58900000       0.03159150       0.01606380       0.00420863
H        5.24510000       8.25810000      10.10970000       0.02405510       0.01387430       0.00791741
O       15.37560000      15.11530000       6.27090000       0.02821200      -0.00677360       0.00548136
H       17.05860000      14.48370000       5.69850000      -0.02987350       0.00889421       0.00331932
H       14.32870000      15.62380000       4.84910000      -0.00099186      -0.00354112      -0.00238597
O        1.93190000      20.22290000      15.58010000       0.00772179      -0.02943060      -0.07755360
H        0.43420000      20.46992000      16.42970000      -0.03876260       0.00853797       0.03270450
H        1.24350000      19.43494000      13.90940000       0.02798160       0.02904300       0.04911900
O       20.38580000       8.01254000       8.97050000       0.00663029      -0.00837194       0.02993430
H       19.70120000       7.93066000       7.35020000      -0.01475100      -0.00175464      -0.02797440
H       19.52960000       6.73954000      10.08400000       0.01595390       0.02047160      -0.01077070
O       13.59140000      14.66800000      15.54314000       0.03889840       0.04712990       0.08670400
H       15.49102000      14.66230000      15.61800000      -0.02070830      -0.00658997       0.01196070
H       13.39100000      14.22160000      13.94310000      -0.02371910      -0.03290210      -0.10324700
O        6.40250000       2.74730000      11.54140000      -0.07681770       0.00727219       0.01628910
H        7.65090000       1.92800000      12.47890000       0.04276130      -0.01693620       0.00588323
H        4.80400000       2.18480000      12.51120000       0.02837860       0.00948024      -0.02140900
O       15.27700000      23.20974000       7.22987000       0.00029633      -0.01174250      -0.00144436
H       14.73180000       0.31803800       7.23562000      -0.00823506       0.01432120       0.00304113
H       14.39050000      22.30210000       8.58902000       0.00890408       0.00190783      -0.01138510
O       13.93260000      23.21954000      21.91850000       0.00552508      -0.01567150       0.03554060
H       14.79230000      22.28318000      20.53770000      -0.00609675       0.00776818       0.03344050
H       14.29130000      22.48764000      23.73000000      -0.00218413       0.00354935      -0.05408910
O        5.07462000      12.78610000      12.96650000      -0.03599630       0.10180500       0.04856040
H        4.96543000      13.28690000      14.84071000       0.00618852      -0.00713462      -0.03499050
H        5.59459000      11.18340000      12.93930000       0.02813270      -0.09002490      -0.00310299
O       18.64740000      14.09910000      15.79510000       0.00630648       0.00779606      -0.02505100
H       18.72490000      15.61260000      14.60960000       0.00202179      -0.00891080       0.02767190
H       19.29310000      12.80820000      14.66190000       0.00143055      -0.00469611       0.00584040
O       10.55950000      20.34850000      14.90229000      -0.06983260       0.03618660       0.01333850
H       11.71900000      19.09430000      15.12496000       0.03959450      -0.04625440       0.01391440
H        9.02988000      20.01140000      16.07083000       0.03118750       0.00312135      -0.01876510
O        1.76510000       8.06680000       8.14190000       0.01215000       0.00967301      -0.00481080
H        0.19740000       8.02100000       9.00650000      -0.01683100      -0.00130587       0.00867268
H        2.20250000       6.31910000       7.82220000       0.00060123      -0.00793398      -0.00578264
O       18.11453000       7.37229000       2.95262000      -0.06500610      -0.09378190       0.00444014
H       19.08754000       8.73552000       2.85317000       0.04791980       0.08642810      -0.00255477
H       16.37495000       7.71672000       2.38856000       0.02028410       0.00232160       0.00195739
O       18.13150000      20.00300000      19.64090000       0.00577313      -0.06727850       0.02012510
H       18.18530000      18.00140000      19.85350000      -0.00105511       0.07338120      -0.01610290
H       18.16130000      20.30090000      17.85270000      -0.00093099      -0.00805273      -0.00767035
O        1.89798000      14.55020000      21.99110000      -0.03412710       0.01023310       0.01189330
H        0.08732100      15.34250000      21.90390000       0.06943640      -0.02303990      -0.02254190
H        3.23185000      14.41760000      20.58450000      -0.04273080       0.01934290       0.00580099
O       14.78770000      20.68370000       2.09965000      -0.00241107       0.02917020       0.04281460
H       15.02720000      21.95460000       3.64873000      -0.01187070      -0.05129110      -0.04339820
H       13.43490000      19.41880000       2.54571000       0.01340810       0.02158780      -0.00252487
O       20.56740000      14.74070000      20.96620000       0.01655750      -0.04874500       0.06854750
H       20.68300000      12.99480000      21.87890000      -0.00307163       0.05199930      -0.00897492
H       20.31400000      13.95870000      19.43920000      -0.01175710      -0.00501385      -0.06878560
O        5.65560000      19.53590000       2.00298000       0.00295975      -0.00786679       0.00945064
H        5.77050000      17.68460000       2.03419000      -0.00080348       0.02154730       0.01108810
H        5.59870000      20.27930000       3.72993000       0.00881999      -0.01754190      -0.02182110
O        6.51483000      22.56350000       6.43280000       0.00592110      -0.00525356       0.02835180
H        7.23860000      22.24140000       8.07450000      -0.01336130      -0.03816130       0.01434980
H        7.69970000      23.87830000       6.33590000       0.01230660       0.03361670      -0.03969560
O        3.54080000       6.78450000       1.42951000       0.02325360      -0.03537850       0.00553424
H        3.47393000       6.87860000       3.20904000      -0.00248667      -0.00927795       0.02013210
H        2.70530000       8.28360000       0.96889600      -0.02277400       0.03528150      -0.01946200
O       13.28840000      12.66690000      10.74250000       0.03103390       0.07861480      -0.01556180
H       12.67230000      11.05190000      10.35150000       0.00485335      -0.03568280      -0.02328300
H       14.28650000      13.63270000       9.35193000      -0.03260440      -0.04546190       0.02937880
O       19.20189000       5.02243000      12.69000000      -0.01880330       0.08847830       0.04233390
H       20.33686000       5.30385000      14.11870000      -0.01361310       0.01002260      -0.00818832
H       19.65400000       3.48419000      12.22540000       0.03409950      -0.10546600      -0.03109530
O        0.77470000      10.62870000       0.33653900      -0.03796080      -0.00707474      -0.03730020
H        1.33980000      12.09670000      24.01776500       0.02232780       0.01853110      -0.00285197
H       24.00240000      10.20360000      23.59455000       0.02014110      -0.00832110       0.04483900
O       21.49800000       9.35404000      22.09290000       0.06046960       0.14292500      -0.04014500
H       20.92790000       7.83758000      22.23290000      -0.05557730      -0.14199500       0.02695250
H       22.30830000       9.26189000      20.42920000      -0.01063460       0.00622291      -0.00006096
O       15.34250000       3.49840000      21.44990000      -0.00183511      -0.02048670       0.03313740
H       17.07770000       3.80200000      22.00580000      -0.01097360      -0.00918758      -0.00334109
H       14.67770000       1.82850000      22.20660000       0.01996290       0.02664350      -0.02744410
O        7.67380000      11.36610000      20.93260000       0.02338010      -0.01812320       0.03967130
H        9.45750000      11.54160000      20.25040000      -0.01132620       0.00383798       0.00901748
H        7.83290000      11.05940000      22.84850000      -0.00752844       0.00892958      -0.03914300
