192
TotEnergy=-1103.41541000 cutoff=-1.00000000 nneightol=1.20000000 pbc="T T T" Lattice="24.97171000       0.00000000       0.00000000      -0.00000100      24.97171000       0.00000000      -0.00000100      -0.00000100      24.97171000" Properties=species:S:1:pos:R:3:force:R:3:Z:I:1
O              24.94160000     -2.40890000    -36.98040000      0.13065800     -0.00542276     -0.07459740       8
H              23.72330000     -2.91612000    -36.03000000     -0.12411800     -0.02920520      0.08154230       1
H              25.78920000     -4.11632000    -37.10980000     -0.00158341      0.03689080     -0.00575781       1
O              52.35440000     48.77260000     -1.96754000      0.08402710     -0.05561250     -0.06398130       8
H              50.97620000     49.71300000     -1.89835000     -0.09486310      0.06359930      0.02054880       1
H              52.43260000     48.72010000     -3.90619000      0.01223660     -0.00608977      0.04155310       1
O              12.43780000      1.36082000     16.52450000      0.02843960     -0.02181610      0.06767310       8
H              12.89270000      2.53677000     18.02150000     -0.01103450     -0.03144680     -0.04213770       1
H              12.98020000     -0.43026400     17.28170000     -0.01333130      0.05156310     -0.02295050       1
O              -3.21573000    -11.92780000     -3.04707000      0.03581300     -0.08692220     -0.03385800       8
H              -2.03901000    -12.71820000     -4.42847000     -0.04191840      0.03984770      0.04848710       1
H              -3.40568000    -10.15710000     -2.92784000      0.00844553      0.03812210     -0.01260300       1
O               5.60131000     36.00550000     18.79840000     -0.00573857      0.00583256     -0.00122687       8
H               6.15387000     35.76220000     20.59950000      0.00108299     -0.01106740     -0.00451237       1
H               6.17874000     34.70510000     17.61740000      0.00641298      0.00134595      0.01880050       1
O              -5.75761000     10.96280000      7.67430000     -0.04039190      0.08368400     -0.08698600       8
H              -6.48936000     12.90040000      7.05766000      0.02618440     -0.05349280      0.04357350       1
H              -6.26313000     10.54750000      5.81771000      0.00975836     -0.02089300      0.04920110       1
O              44.95220000     29.90800000     13.11990000     -0.11890000     -0.00974362      0.03882050       8
H              46.54820000     29.74320000     12.56800000      0.07067420     -0.02791660     -0.03452830       1
H              43.67290000     28.38020000     12.87350000      0.04568830      0.03629180     -0.00448766       1
O               3.63854000    -35.23730000      8.93180000     -0.00077867     -0.01489090      0.03724020       8
H               4.66265000    -36.48540000      9.80959000      0.01363470     -0.01604320     -0.03258760       1
H               3.36375000    -34.47580000     10.58940000     -0.01085540      0.03653660     -0.01002440       1
O              33.41910000    -34.73570000     18.34810000     -0.06072700     -0.04958770     -0.02952170       8
H              32.26260000    -36.49240000     18.63090000      0.03526130      0.05605040     -0.01092910       1
H              34.51170000    -34.57460000     19.69020000      0.02830760     -0.00588511      0.03533540       1
O              10.83710000    -29.37470000    -24.04330000      0.03562000      0.02086240     -0.01968400       8
H              12.68850000    -29.31260000    -24.41930000     -0.01877440      0.01528490     -0.00994013       1
H              10.92980000    -30.79970000    -23.01110000     -0.02258290     -0.02809270      0.02251150       1
O             -13.33070000      5.31777000      8.50841000     -0.06936950     -0.13185200     -0.07354040       8
H             -12.65930000      3.55330000      7.68864000     -0.01591690      0.06726590      0.04255610       1
H             -12.22790000      6.42206000      9.08663000      0.08629340      0.05832700      0.03018200       1
O             -10.39270000     29.25300000     51.81280000     -0.00114697     -0.08072510     -0.01692280       8
H             -11.93500000     28.00520000     51.89590000      0.02197950      0.03800770      0.00240749       1
H              -9.19621000     27.83370000     51.13050000     -0.01071230      0.04205140      0.01834270       1
O              12.27650000    -32.19680000    -18.18320000     -0.03570590     -0.00869112      0.03404300       8
H              10.93880000    -32.88930000    -19.54800000      0.02097290      0.01625410      0.05831090       1
H              11.72800000    -32.00520000    -16.22190000      0.00514013     -0.01467090     -0.08798700       1
O              26.40690000     15.22900000     42.16080000     -0.01887530      0.01231010     -0.01358760       8
H              24.77100000     14.54160000     41.81590000     -0.02200360      0.01136900     -0.00679124       1
H              27.00610000     13.78570000     42.93890000      0.03696250     -0.02873090      0.02296060       1
O               4.95538000      1.02318000      3.05134000      0.02470040      0.09149670     -0.00972839       8
H               4.62083000     -0.19201300      4.20423000     -0.01722720     -0.06741790      0.03317410       1
H               4.65505000      0.88185900      1.32542000     -0.01205670     -0.02815120     -0.02437320       1
O             -33.00490000     26.35820000     31.54780000     -0.13187800      0.00774138     -0.02933220       8
H             -31.35710000     26.70430000     31.40660000      0.08598690      0.01683840     -0.01633070       1
H             -33.97080000     27.27090000     30.06420000      0.03874370     -0.02457580      0.04874350       1
O             -32.25000000     11.01320000     24.15090000      0.12925100      0.01251640      0.13279600       8
H             -33.23790000     11.06640000     22.89550000     -0.11254400     -0.00187274     -0.14333100       1
H             -30.58420000     11.65360000     23.45310000     -0.01748030     -0.00802983      0.00535818       1
O             -21.71570000     65.30900000    -21.22830000     -0.00051834     -0.02464020     -0.03594000       8
H             -21.80640000     65.36280000    -19.45820000     -0.00044983      0.00434251      0.03070320       1
H             -21.87210000     63.46650000    -21.59000000      0.00379795      0.01998080     -0.00033258       1
O              69.48430000     21.63020000     37.65980000      0.01117360     -0.01230690     -0.02636730       8
H              68.89660000     23.32910000     37.30460000     -0.00625730     -0.01116670      0.01969690       1
H              69.26820000     20.84360000     39.27590000     -0.00883238      0.01914040      0.01021760       1
O              59.59970000    -14.20980000      3.96818000      0.13554200      0.14817200      0.02283960       8
H              58.58040000    -15.41370000      3.85930000     -0.12561600     -0.15075900     -0.01747070       1
H              61.25780000    -14.87390000      4.33524000     -0.00320955      0.00088755     -0.00460312       1
O              28.10210000     17.55740000    -11.89370000      0.01697670      0.03489880     -0.04172400       8
H              29.86040000     18.22080000    -11.84880000     -0.03153190     -0.02763180      0.01610400       1
H              27.53450000     16.25430000    -10.79230000      0.01581560     -0.00184935      0.03258820       1
O             -16.73690000      6.34858000     66.74290000     -0.02562270      0.03682870     -0.05672890       8
H             -15.25020000      6.19599000     65.74020000      0.01596990     -0.00025213      0.00708113       1
H             -16.69500000      5.50691000     68.24400000      0.00476109     -0.03285690      0.04913750       1
O              10.61450000      1.14536000      2.06601000      0.00104990     -0.02146050     -0.00711900       8
H               9.79523000      0.92242000      3.65915000     -0.00322825      0.00560664      0.00953973       1
H              10.87140000     -0.64590400      1.66089000     -0.00072688      0.00888688     -0.00534590       1
O              46.47330000      0.84040600     29.65210000      0.02487240      0.03171130     -0.02329930       8
H              47.88060000      2.01636000     29.10440000     -0.02931570     -0.01608160      0.01594730       1
H              47.30320000     -0.76246100     29.74790000      0.01238110     -0.01099740      0.00680260       1
O              -1.71684000     63.97080000     35.02300000      0.01020950     -0.01575420     -0.00367099       8
H              -2.47658000     62.50040000     34.05330000      0.02327050      0.03011320      0.01829600       1
H               0.17882400     64.10590000     34.90210000     -0.03794740     -0.01495580     -0.01344580       1
O               9.34395000     41.41180000     12.99010000     -0.01270330     -0.02818060     -0.04373630       8
H               8.85080000     39.78480000     12.06040000      0.01110410      0.03682010      0.02488570       1
H               9.07362000     41.07490000     14.72920000     -0.00158170     -0.00666024      0.02073960       1
O             -15.84350000     20.31760000     20.68300000      0.02571130      0.06868090     -0.07269530       8
H             -16.53570000     18.88540000     20.07620000     -0.03530930     -0.06523830     -0.01127430       1
H             -15.55750000     20.43660000     22.35550000      0.00619828     -0.00601814      0.08258900       1
O              28.63720000     35.17220000     52.42670000     -0.05470110      0.02208710     -0.08645510       8
H              28.50870000     34.08140000     53.72350000      0.00910349     -0.04757190      0.06595060       1
H              27.03240000     34.45130000     51.38240000      0.03825930      0.02851630      0.02187240       1
O               8.53205000     30.23230000     22.01450000      0.03754720      0.00266661     -0.01599040       8
H              10.46640000     30.30310000     21.33080000     -0.04873620     -0.00926336      0.04790170       1
H               8.40505000     29.12070000     23.49470000      0.01251880      0.01093510     -0.01890310       1
O               3.09785000    -25.77660000     17.22850000     -0.00719775      0.02694090     -0.03956030       8
H               1.87698000    -25.76040000     15.64850000      0.04820730     -0.00513958      0.04158100       1
H               4.92943000    -25.14270000     16.82960000     -0.05117470     -0.02802580      0.00123928       1
O               0.84522000     19.03810000      0.42557900     -0.03188650     -0.05191260      0.04557740       8
H               1.89222000     17.74130000      1.26136000     -0.00833054      0.01204660     -0.00765745       1
H               1.82459000     20.04740000     -0.56390000      0.03782000      0.04036530     -0.03454330       1
O               0.09966500      3.61191000     12.30240000      0.04781700     -0.05956490     -0.03361480       8
H               0.80079200      4.65761000     11.01220000     -0.00372437      0.04717890     -0.00950790       1
H               1.20994000      2.20294000     11.45280000     -0.04565770      0.01780400      0.04604930       1
O             -36.40020000     55.08850000    -28.25100000     -0.01278990     -0.03350720      0.00866170       8
H             -35.59860000     56.33840000    -29.17280000      0.02525420      0.03905000     -0.03030250       1
H             -35.47470000     55.06840000    -26.67410000     -0.01128760     -0.00398632      0.00938198       1
O               7.27408000     55.75590000    -20.42130000      0.03804410     -0.05533120     -0.00615211       8
H               8.99345000     55.53360000    -19.64940000     -0.03117010      0.01197110     -0.00724200       1
H               7.11562000     53.99590000    -21.23560000     -0.01101110      0.04560990      0.01926690       1
O             -41.21640000     40.76070000      3.17640000      0.00530325      0.01702980      0.00004344       8
H             -40.59820000     39.09320000      2.84458000     -0.00309046     -0.01270640      0.00204747       1
H             -43.04290000     40.62250000      3.34481000      0.00341042      0.00221336      0.00127772       1
O              15.81660000     34.29050000     19.41380000     -0.01904180      0.03362440     -0.09491400       8
H              17.44250000     34.44650000     18.27370000     -0.03775220     -0.01458610      0.03644930       1
H              14.41560000     34.81060000     17.97290000      0.05265430     -0.02496830      0.05775950       1
O             -16.93270000    -13.01860000      9.96179000     -0.12352500     -0.12023900      0.16876100       8
H             -16.05390000    -12.49800000      8.78694000      0.12565800      0.07476480     -0.17811200       1
H             -16.94860000    -14.98530000      9.85283000     -0.00043633      0.04441270      0.01274810       1
O             -49.61760000      3.91504000     18.20080000     -0.06215160      0.04660360     -0.08210110       8
H             -48.53850000      2.48086000     18.10440000      0.01194460     -0.01749530     -0.01070390       1
H             -50.48690000      4.25679000     16.18740000      0.05098160     -0.02776610      0.08811120       1
O             -22.77280000    -18.10320000     33.71600000     -0.10394500     -0.00815811      0.01980330       8
H             -21.15040000    -17.82040000     33.94410000      0.10725000      0.01501020      0.01122430       1
H             -23.15120000    -18.42870000     32.01600000     -0.00359223     -0.01090130     -0.02686030       1
O              17.14840000     16.34680000     25.38370000     -0.01401410     -0.06941960     -0.01933020       8
H              17.59040000     16.55630000     27.05120000      0.00639497      0.02515710      0.06278800       1
H              17.01620000     14.40400000     25.63200000     -0.00159899      0.04252820     -0.03163470       1
O             -20.32220000     -2.98120000     31.58220000     -0.01527880     -0.06027710      0.07295780       8
H             -19.34620000     -3.40805000     33.26080000     -0.02518290      0.02482070     -0.05623950       1
H             -21.89300000     -4.12742000     31.90510000      0.04196210      0.04271920     -0.01687100       1
O              41.29080000      8.21481000     35.95680000      0.00165783      0.03637860     -0.02002320       8
H              42.54950000      7.42169000     36.96440000      0.01345680     -0.01086370      0.00142443       1
H              42.26360000      9.56004000     34.92180000     -0.02112430     -0.03144300      0.01461160       1
O              -5.82403000    -30.89060000     -7.67998000     -0.01851050     -0.02420550     -0.03690060       8
H              -5.36486000    -31.16270000     -5.99676000      0.01341840      0.00203943      0.03469570       1
H              -5.93535000    -32.63320000     -8.33325000      0.00610416      0.01701400      0.00394332       1
O              57.52020000    -18.04730000    -14.01310000     -0.00865242      0.00807105     -0.06285270       8
H              57.60190000    -18.37670000    -12.32880000      0.00028059     -0.01091790      0.05775570       1
H              58.61210000    -19.25930000    -14.88160000      0.00238581      0.00829115      0.00287518       1
O               7.97282000     -1.27118000     16.50600000      0.04244220      0.04342120      0.00461888       8
H               9.27616000      0.36428600     16.54790000     -0.03329920     -0.06754150      0.00720446       1
H               8.28852000     -2.50559000     17.90350000      0.00171775      0.02888120     -0.01447300       1
O             -34.37130000     -3.79422000     48.94040000     -0.00290801      0.00610937     -0.02411350       8
H             -34.71640000     -3.17058000     47.10400000      0.01275060     -0.03830820      0.04673380       1
H             -33.90400000     -5.61204000     49.20920000     -0.00618755      0.02892160     -0.02447410       1
O              12.40910000    -16.34350000    -10.53090000      0.04871320     -0.05662290      0.00147445       8
H              11.44530000    -14.92450000    -10.72490000     -0.02263110      0.04370980     -0.01894750       1
H              13.74160000    -16.61320000    -11.89100000     -0.02239760      0.02006690      0.01666610       1
O              20.51700000     18.49440000      8.25919000     -0.01299850      0.03567390      0.01261850       8
H              19.81540000     19.14430000      9.82727000     -0.02405190      0.04079850     -0.01167430       1
H              21.39200000     17.46680000      9.36867000      0.05084430     -0.05894830     -0.00207000       1
O              13.92590000     21.40090000     -6.20656000      0.02728450      0.02362190     -0.01027410       8
H              12.42720000     20.51990000     -5.81917000     -0.02288550     -0.01473120      0.00394324       1
H              15.05150000     20.41750000     -7.25881000     -0.00273823     -0.00028929      0.00565540       1
O              24.47600000     46.56810000     30.34590000     -0.05657440      0.01938660      0.06815730       8
H              22.92590000     45.63270000     30.86600000      0.03005340      0.00459373     -0.00617901       1
H              25.16890000     45.87480000     28.94220000      0.01928430     -0.03349040     -0.06238120       1
O              -9.22793000      9.61311000      3.75553000      0.01312410      0.11547800     -0.03576600       8
H              -8.76786000     10.53440000      1.99723000     -0.01185030     -0.03378530      0.05825340       1
H              -9.20485000      7.99829000      3.24607000     -0.00177459     -0.08564950     -0.02074750       1
O              16.49230000    -23.72810000     11.79610000      0.03560280     -0.00062269      0.03999080       8
H              16.26920000    -23.74320000     10.03670000     -0.01612170      0.00517669     -0.03354230       1
H              15.03660000    -23.67990000     12.83250000     -0.01815760      0.00003901     -0.00267712       1
O              -3.80125000     13.77380000     40.41290000      0.03068470      0.03265970     -0.02990490       8
H              -4.80508000     12.25840000     40.29180000      0.01193250     -0.00231274     -0.01036810       1
H              -2.80337000     14.20910000     38.78030000     -0.03989520     -0.02725030      0.03356440       1
O              46.06100000     42.78990000     -2.17267000     -0.01347600     -0.00335404      0.02223530       8
H              47.67740000     43.19040000     -1.41665000      0.00472020      0.00458845      0.00064429       1
H              44.89360000     42.40250000     -0.71068200      0.01629600      0.00576303     -0.03270290       1
O              25.75620000      8.93048000    -29.83850000     -0.00372510      0.03099250      0.00752632       8
H              27.30050000      9.72725000    -30.48710000     -0.00655618     -0.01169120      0.00726849       1
H              25.62590000      7.25952000    -30.46470000      0.00740485     -0.02748060     -0.01166520       1
O             -13.26220000     50.08290000      7.53558000     -0.03826580      0.06328620     -0.00720496       8
H             -11.96320000     49.05950000      7.15427000      0.06021210     -0.04626210     -0.01794600       1
H             -14.35910000     49.19280000      8.58477000     -0.02423100     -0.01708860      0.02344970       1
O               7.96659000    -27.50200000     36.19240000      0.00852212     -0.00199169      0.06431560       8
H               8.12937000    -29.21420000     36.76250000      0.00525638     -0.02477140     -0.02560530       1
H               8.12659000    -27.09720000     38.10330000     -0.00911900      0.02481100     -0.03578030       1
O               0.53677500     29.65320000      4.31326000     -0.00361639      0.01655910     -0.05358150       8
H               1.70004000     28.28140000      3.96270000      0.00625854      0.00469654      0.00183846       1
H               0.36458300     30.55120000      2.59440000     -0.00097630     -0.02197430      0.04279580       1
O              -7.83898000     -8.91807000      5.96118000     -0.04191670     -0.04339280     -0.01616890       8
H              -9.58340000     -8.61086000      6.61647000      0.01797760      0.00460378     -0.01321020       1
H              -6.81034000     -7.51863000      6.28450000      0.01801630      0.02053100      0.01991970       1
O              -4.78151000      8.67017000     16.72730000      0.01741310     -0.00379574      0.00410174       8
H              -3.15963000      8.62311000     17.62200000     -0.01898220     -0.00084265     -0.01053320       1
H              -4.85786000      7.21129000     15.56160000      0.00108080      0.00383461      0.00569118       1
O              24.29260000    -16.52250000      0.20962400      0.04080130     -0.01353280     -0.05556360       8
H              24.73950000    -16.41540000     -1.77985000     -0.01780320      0.00355174      0.05995000       1
H              22.94690000    -15.43920000      0.63765800     -0.01313660      0.01232790     -0.00513461       1
O              22.95170000      2.37756000     47.68290000     -0.03808500      0.00215088     -0.01535210       8
H              21.15780000      2.04626000     48.44820000      0.04922700      0.01061730     -0.03387740       1
H              22.97710000      2.92877000     45.81670000     -0.00787313     -0.01514800      0.05137990       1
O              18.44210000     25.91310000     50.44990000      0.01788650     -0.04684100      0.02673990       8
H              19.57360000     25.44340000     51.95100000     -0.01210900      0.03280350     -0.01382480       1
H              17.94070000     24.13410000     50.20340000     -0.01010010      0.01643040     -0.01657960       1
O             -17.75590000     10.27040000     23.68410000      0.02487070     -0.05295250     -0.05778390       8
H             -17.25490000      8.36318000     22.94420000     -0.02177000      0.05863770      0.04366870       1
H             -18.91820000     10.28140000     25.09320000     -0.00020247     -0.01470060      0.00076040       1
