192
TotEnergy=-1103.56681000 cutoff=-1.00000000 nneightol=1.20000000 pbc="T T T" Lattice="23.97183000       0.00000000       0.00000000      -0.00000100      23.97183000       0.00000000      -0.00000100      -0.00000100      23.97183000" Properties=species:S:1:pos:R:3:force:R:3:Z:I:1
O              23.78390000     -4.12300000    -27.68940000      0.00914717     -0.02742250     -0.01068680       8
H              22.89590000     -3.90268000    -29.31930000     -0.00252094     -0.00104635      0.01728430       1
H              24.93970000     -5.56918000    -28.05840000     -0.01295880      0.02229430      0.00769846       1
O              46.50090000     44.29390000      2.14581000      0.01439960      0.04993040      0.02251420       8
H              47.19730000     46.07110000      1.73283000     -0.00924096     -0.03589840      0.01433530       1
H              46.31760000     43.65150000      0.52621200     -0.00668204     -0.01682500     -0.03994790       1
O               9.32554000      1.72138000     13.55630000     -0.03848370     -0.08734940     -0.07909980       8
H               9.90051000      2.73289000     14.74830000      0.04089970      0.05641990      0.07945360       1
H               9.42349000     -0.11064500     14.05350000     -0.00059134      0.03187990     -0.00398287       1
O              -4.76742000     -9.87362000     -1.75535000      0.01248550      0.01370940      0.02693130       8
H              -2.99355000    -10.60790000     -1.82281000     -0.03939990      0.03393720      0.00669289       1
H              -5.17079000     -8.36849000     -0.52044000      0.03339830     -0.04959230     -0.03395640       1
O               6.94795000     30.84220000     17.23360000      0.03088910      0.05537020     -0.06260190       8
H               7.96695000     31.97530000     18.37470000     -0.01192650     -0.01795560     -0.00353415       1
H               7.44231000     31.68210000     15.40500000     -0.02310710     -0.04240950      0.06538910       1
O              -7.00111000     11.90010000      9.14465000      0.01540070      0.02545740     -0.03577550       8
H              -7.61487000     10.18190000      9.55571000      0.00586301      0.00289242     -0.02198470       1
H              -6.21063000     12.20330000      7.40174000     -0.01627010     -0.02660260      0.04778640       1
O              43.70890000     24.31440000     13.34090000      0.02832440      0.01445230     -0.00801990       8
H              45.34290000     25.29860000     13.00730000     -0.03866040     -0.02157730      0.00458509       1
H              42.63740000     24.18380000     11.82080000      0.01250990     -0.00217342      0.00383273       1
O               0.17476100    -28.61210000      9.11785000      0.03591470     -0.06248580     -0.01080960       8
H               0.40990500    -30.40350000      8.39301000      0.01375570      0.04180490      0.03196880       1
H              -1.37570000    -28.38680000      8.35701000     -0.05297250      0.02674800     -0.01849220       1
O              31.90250000    -33.20560000     22.55970000     -0.03370340      0.01518880      0.01987780       8
H              33.37560000    -32.26370000     22.43010000      0.02868910      0.04983210      0.00570320       1
H              32.54700000    -34.55400000     21.69380000      0.00350273     -0.06784300     -0.02868940       1
O              10.82420000    -28.86280000    -24.75860000      0.00028165      0.00737717     -0.03440280       8
H              12.42120000    -27.95550000    -25.25320000     -0.00944632     -0.01783550      0.00253369       1
H              10.87630000    -28.82740000    -22.99830000     -0.00299772      0.00551788      0.03704370       1
O             -11.13000000      2.87363000      7.55169000     -0.04930130     -0.03729910      0.01975360       8
H             -12.42160000      1.69566000      8.54611000      0.04148240      0.04325530     -0.04472960       1
H             -11.58480000      2.89925000      5.69074000      0.01480500     -0.00925426      0.03762710       1
O             -11.14860000     26.86190000     50.50310000      0.02361050      0.00936326      0.03986090       8
H             -12.88420000     27.05160000     50.42700000     -0.04461780      0.00453185     -0.01551020       1
H             -10.53000000     26.40530000     48.92260000      0.01369910     -0.01036660     -0.03670550       1
O              13.75240000    -28.10150000    -11.64950000     -0.03652610      0.05329130      0.04215000       8
H              13.99520000    -29.68820000    -12.43290000     -0.01630670     -0.02539550     -0.00998738       1
H              11.93450000    -27.68180000    -10.95070000      0.04846660     -0.02788870     -0.02288700       1
O              26.18810000     14.70240000     34.66470000     -0.00196021     -0.01626480     -0.01798830       8
H              26.27700000     12.85420000     34.25450000     -0.00294525      0.03103830      0.00440167       1
H              27.05460000     14.97870000     36.22710000      0.00298207     -0.01553670      0.00685314       1
O               0.54908600      1.02787000      1.03675000     -0.04357360      0.02860650      0.08130260       8
H               1.21151000      1.92905000      2.56177000     -0.01268960     -0.01996470     -0.01748310       1
H               1.83937000      1.17131000     -0.08340400      0.05486460     -0.00716797     -0.05570770       1
O             -28.65150000     20.08970000     30.65830000      0.00078561      0.02816900     -0.03339270       8
H             -28.31300000     20.76290000     28.87310000      0.00377230     -0.00759827      0.05216070       1
H             -29.36030000     21.49370000     31.73490000      0.00020685     -0.01882230     -0.02026310       1
O             -31.79400000     10.77720000     24.64300000      0.01501270      0.00373548      0.00542523       8
H             -32.87470000     10.17940000     23.31750000      0.00622661     -0.00209940     -0.00821229       1
H             -30.27070000     11.60270000     23.86820000     -0.02496010     -0.00384046     -0.00215277       1
O             -16.50220000     63.09460000    -20.16480000      0.01962580      0.00758781      0.00117657       8
H             -18.04820000     62.96270000    -19.27970000     -0.01186830     -0.00000862      0.00257279       1
H             -16.78470000     62.93950000    -21.95890000     -0.00502392     -0.00435845     -0.00098001       1
O              68.36530000     19.72720000     40.49850000      0.05712550      0.06000720     -0.04910100       8
H              68.21950000     21.28690000     39.37210000      0.00923791     -0.02860880      0.01877050       1
H              66.71300000     19.40670000     40.84350000     -0.06721020     -0.02495570      0.02124120       1
O              55.03060000    -20.14550000      1.61233000      0.05861080     -0.00112295     -0.10767600       8
H              53.74510000    -20.69980000      2.58346000     -0.05884850     -0.02736200      0.04764730       1
H              54.82630000    -20.86950000     -0.26124400      0.00976620      0.02627640      0.05832980       1
O              30.38810000     18.57750000    -13.86860000     -0.00208562     -0.07504470      0.01628490       8
H              31.27050000     16.74880000    -13.65360000     -0.01300400      0.05424300     -0.01775380       1
H              28.64770000     17.87600000    -13.88620000      0.01566760      0.01816540     -0.00529705       1
O             -15.48010000      7.46628000     59.62550000      0.05869520     -0.06275310      0.06423520       8
H             -16.01950000      7.93686000     57.98320000      0.00829135      0.00358943     -0.03497950       1
H             -14.11280000      6.02090000     59.63570000     -0.05277200      0.05177040     -0.01096610       1
O               7.56765000      2.66494000     -3.60608000      0.04272180     -0.02850990     -0.08510470       8
H               8.58946000      1.31179000     -4.65932000     -0.03494850      0.03112590      0.05075790       1
H               7.56851000      3.85453000     -5.12095000     -0.00720844     -0.00088545      0.03708200       1
O              44.23880000      3.90253000     22.92750000      0.02920570      0.01713830      0.05851160       8
H              43.69320000      4.98604000     24.48270000      0.01356180     -0.03311690     -0.04303480       1
H              45.97160000      3.16520000     23.49680000     -0.04840050      0.01605000     -0.01311360       1
O              -3.56560000     61.63200000     28.89170000      0.03859650      0.02611680      0.02482110       8
H              -4.64930000     62.81880000     28.12840000     -0.01333360      0.01339690     -0.01257430       1
H              -2.03000000     62.76950000     29.34710000     -0.03152240     -0.03832510     -0.01266540       1
O               9.00595000     37.81390000      9.66874000     -0.01097580     -0.00940826     -0.02764620       8
H               8.36218000     36.61390000      8.35146000      0.00569297      0.01104420      0.02543900       1
H              10.57870000     38.43000000      8.89048000      0.00362670      0.00044563      0.01076020       1
O             -16.33280000     20.70260000     19.38530000     -0.00263636     -0.03670110      0.02858570       8
H             -17.48620000     19.14000000     19.18070000      0.01557710      0.03442790      0.01384910       1
H             -15.36240000     20.25510000     21.02660000     -0.01446530      0.00752765     -0.03700340       1
O              31.62070000     32.73670000     50.23120000      0.02136910      0.01225310      0.01120920       8
H              31.55510000     30.86740000     50.04480000     -0.02345290      0.01719320     -0.01391780       1
H              30.39470000     33.95180000     49.56220000     -0.00607625     -0.02879230      0.00357018       1
O              14.38620000     32.20590000     19.34850000      0.04584400      0.10545400     -0.00134900       8
H              15.28990000     33.52920000     18.14320000     -0.03470420     -0.04555030      0.04231480       1
H              13.94640000     30.81080000     18.40540000     -0.01437940     -0.04362610     -0.02790550       1
O               2.98714000    -24.42230000     21.02170000      0.04119380      0.02444110      0.00142593       8
H               1.82090000    -25.81770000     21.11390000      0.00087064     -0.01894530     -0.01079930       1
H               4.80856000    -24.90970000     20.78220000     -0.04032980      0.00067679     -0.00098070       1
O               1.05065000     16.08290000      4.43932000      0.04012290     -0.05387210     -0.01316750       8
H               1.96302000     15.19050000      3.01275000     -0.02225260      0.01602560      0.03233100       1
H               0.22329000     17.41330000      3.65361000     -0.01578470      0.04364370     -0.02055390       1
O               0.89136400      2.26144000     13.23000000     -0.01755500      0.00687098     -0.05282510       8
H               1.22927000      0.58865500     12.58270000      0.00890261     -0.00355786      0.02297350       1
H               1.29967000      2.53023000     14.93180000      0.00764859     -0.00601140      0.03525860       1
O             -34.67040000     51.88970000    -30.75610000     -0.10739100     -0.03439470      0.06612820       8
H             -33.45250000     52.37500000    -31.78020000      0.09478370      0.01835420     -0.06764240       1
H             -34.09220000     50.89440000    -29.32690000      0.01078890      0.00658186     -0.00603922       1
O               4.03611000     49.99790000    -18.40060000      0.04734140     -0.03441500      0.03329600       8
H               3.97463000     50.98160000    -16.78630000      0.00043360     -0.01168490     -0.02490590       1
H               5.48014000     48.59930000    -17.99910000     -0.05067650      0.05390830     -0.00781006       1
O             -34.32610000     38.04800000      3.88530000     -0.04181900      0.02714790     -0.05240590       8
H             -33.61170000     36.99010000      2.54953000      0.00378211     -0.01218840      0.00858106       1
H             -35.88250000     38.74400000      2.88670000      0.04554980     -0.01992870      0.04129940       1
O              19.37070000     35.36330000     13.39840000     -0.03414750     -0.01275420     -0.02177530       8
H              20.52610000     36.58320000     13.98770000      0.01275610      0.02243080     -0.00633701       1
H              18.65910000     35.94420000     11.69450000      0.01841220     -0.00949092      0.02911210       1
O             -16.68240000    -14.66370000      7.61850000      0.22015900     -0.03835660     -0.06195970       8
H             -16.73260000    -15.06200000      5.79761000      0.02414510     -0.00037825     -0.00020149       1
H             -18.19420000    -14.38130000      7.75056000     -0.25367900      0.05148190      0.03873600       1
O             -46.61340000      4.04157000     18.39410000      0.09525350     -0.04990020      0.04962800       8
H             -46.72450000      2.34551000     19.56500000      0.01068200      0.05757200     -0.04508200       1
H             -44.45980000      4.32024000     18.55290000     -0.10003300     -0.00879521     -0.00838341       1
O             -21.99530000    -13.94110000     32.01260000     -0.02251700     -0.02374550     -0.03709290       8
H             -21.88170000    -15.53570000     33.05860000     -0.00935259      0.01814030     -0.02689880       1
H             -22.99780000    -14.18930000     30.28260000      0.03211950      0.00276153      0.06533640       1
O              13.46130000     15.78750000     33.14340000      0.07137840      0.05949920     -0.09982700       8
H              15.14990000     14.94560000     32.88690000     -0.03199310     -0.01473110      0.02333940       1
H              13.95930000     16.99750000     31.30620000     -0.04184900     -0.04528390      0.07786490       1
O             -22.23640000     -2.99644000     37.64810000     -0.01725330      0.00190552     -0.01897260       8
H             -20.64960000     -3.75493000     38.17700000     -0.01853500      0.00110962     -0.02132760       1
H             -23.05180000     -3.52460000     35.93660000      0.03584250     -0.00761449      0.03707470       1
O              39.65160000      7.09697000     33.76530000     -0.02410280     -0.04881120      0.02685890       8
H              38.24990000      6.13518000     33.00000000      0.01406950      0.01497870     -0.00361567       1
H              39.94340000      5.93753000     35.25470000      0.01034160      0.03427160     -0.01843980       1
O              -8.83072000    -34.86020000     -7.91442000      0.00001283     -0.00077237      0.01919910       8
H              -7.33707000    -35.60570000     -8.68625000     -0.00175795     -0.00515438     -0.01380280       1
H             -10.44170000    -35.57520000     -8.43230000      0.00606110      0.00471129     -0.00954819       1
O              51.47920000    -18.51360000    -13.58700000     -0.01283130     -0.01827080      0.00670275       8
H              53.08180000    -18.15980000    -12.80630000      0.00066428     -0.00171763      0.00398331       1
H              50.56060000    -19.78110000    -12.46900000      0.00993124      0.02208200     -0.01240380       1
O              16.29840000     -0.82074000      9.64092000      0.02502690      0.02987430     -0.02137680       8
H              15.41880000      0.59795500      8.78115000     -0.00256346     -0.02284390      0.01611600       1
H              15.37610000     -1.95294000     10.74840000     -0.02286020     -0.00076787      0.00157788       1
O             -32.70080000     -3.68430000     46.01370000      0.05020640     -0.03287060      0.02634100       8
H             -32.38590000     -4.89437000     44.64700000     -0.01093240      0.00991781     -0.01864050       1
H             -31.65650000     -4.67054000     47.35030000     -0.03060750      0.03312230     -0.01734060       1
O               5.03508000    -10.54350000     -9.19523000     -0.00725339      0.00352585      0.01369420       8
H               4.84717000    -11.62660000     -7.72677000     -0.01680930      0.00587781      0.00232864       1
H               6.76012000    -10.84300000     -9.53521000      0.02565270      0.00054144     -0.00922721       1
O              22.41850000     15.33210000     14.68760000     -0.00637263      0.02797650      0.01410490       8
H              21.87420000     17.06380000     15.10600000     -0.01123050     -0.01455730      0.01503420       1
H              23.39690000     15.81700000     13.28630000      0.01839370     -0.01425930     -0.02668760       1
O               9.00316000     20.49730000     -9.54636000      0.00861011      0.00871301     -0.00477273       8
H               8.35429000     20.45820000     -7.82154000      0.00362658     -0.00236665      0.00333643       1
H               7.86361000     19.78380000    -10.77330000     -0.00720208     -0.00153034     -0.00170727       1
O              22.71890000     57.87060000     26.85530000      0.01005470     -0.04125000     -0.00177633       8
H              21.61570000     59.25770000     27.21360000     -0.01228720      0.00781729      0.01207720       1
H              21.83200000     56.28330000     27.30060000      0.00776796      0.02729600     -0.00621833       1
O              -5.86329000      6.84723000      3.90513000     -0.04636630      0.01313980     -0.03437570       8
H              -6.72405000      8.15287000      2.70484000      0.02165460     -0.02936930      0.03153510       1
H              -7.30524000      5.71653000      4.33816000      0.02657190      0.01795860     -0.00451052       1
O              15.45010000    -30.00360000     17.44400000     -0.01414290      0.02770920     -0.02851050       8
H              14.64820000    -28.80090000     16.10100000      0.02323260     -0.05226370      0.03272210       1
H              15.45080000    -31.84900000     16.93600000     -0.00884159      0.02391330     -0.00514859       1
O               4.15138000     17.00210000     43.44480000      0.02159440     -0.03761920     -0.05848100       8
H               4.82399000     15.77390000     44.63110000      0.00077001      0.00528657      0.00178486       1
H               4.62130000     16.09810000     41.73560000     -0.02262480      0.02274510      0.04741680       1
O              41.25590000     41.42090000      2.10496000     -0.00839614     -0.01007080      0.01481560       8
H              41.58140000     42.69180000      3.41208000     -0.00606784     -0.01602760     -0.00801244       1
H              40.02340000     40.15810000      2.84375000      0.00375162      0.02360200     -0.00656029       1
O              22.71180000     11.10670000    -29.76360000     -0.03582620     -0.03992770      0.02969470       8
H              21.39870000      9.65077000    -29.55340000      0.03463350      0.02896560     -0.00718519       1
H              21.98650000     12.15630000    -30.98110000     -0.00383926      0.02263350     -0.01697260       1
O             -12.62010000     43.16030000      4.74626000     -0.00567424      0.01638980      0.02636800       8
H             -14.09300000     42.01080000      4.91626000      0.01333200      0.01945510      0.00806115       1
H             -12.61200000     44.54500000      6.07187000     -0.01236320     -0.03694540     -0.03195000       1
O               7.99548000    -24.43790000     32.35400000     -0.04545340     -0.04211210      0.03068390       8
H               6.92805000    -26.19670000     32.69650000      0.04581070      0.06277620     -0.00286913       1
H               7.76292000    -23.33160000     33.88570000      0.00046744     -0.02698220     -0.02549330       1
O               3.17673000     35.64350000      0.50907100      0.04721470      0.02739640      0.03781700       8
H               1.58735000     35.21560000      1.14034000     -0.03202520     -0.02161410     -0.00351812       1
H               3.50940000     35.51310000     -1.22072000     -0.01370150     -0.00767218     -0.03484510       1
O             -13.71870000    -11.91890000     14.32240000     -0.01878150     -0.00554833     -0.06590020       8
H             -13.78310000    -13.58280000     13.49430000      0.00319986     -0.00247491      0.02095680       1
H             -14.20390000    -11.17620000     12.53230000      0.01800040      0.00413799      0.03859760       1
O              -6.31845000      4.87895000     14.55560000     -0.04441550      0.00833178     -0.03034160       8
H              -5.38430000      5.69875000     15.87790000      0.01602910     -0.01383110      0.00480265       1
H              -6.07046000      3.12736000     14.09030000      0.02189680      0.00518891      0.02105930       1
O              27.34470000    -12.83430000     -4.88060000      0.02880620      0.09137640      0.05704680       8
H              25.60500000    -12.64160000     -5.15977000     -0.04300520     -0.00743422     -0.01361030       1
H              27.97360000    -14.23480000     -5.53433000      0.02810070     -0.09311360     -0.03616360       1
O              20.49990000      6.72359000     42.17460000     -0.04489130      0.00429206      0.04921950       8
H              20.34440000      6.05121000     43.93330000     -0.01322030      0.00402992     -0.01637570       1
H              22.15130000      6.24556000     41.95830000      0.05992980     -0.01767110     -0.02240430       1
O              15.27630000     25.70230000     45.59230000     -0.11787700     -0.07834830     -0.03030680       8
H              16.91210000     25.76940000     45.81380000      0.12602000      0.02611220      0.01988700       1
H              15.22500000     23.75470000     45.23390000     -0.00934317      0.04849040      0.01507230       1
O             -14.52540000      9.45590000     20.90330000     -0.01042870      0.00210824      0.02486640       8
H             -12.72970000      9.13957000     20.72170000      0.00381660     -0.00294203     -0.00343533       1
H             -15.03460000      8.94290000     22.63910000      0.01048010      0.00540524     -0.02133250       1
