192
TotEnergy=-1103.41455000 cutoff=-1.00000000 nneightol=1.20000000 pbc="T T T" Lattice="24.65838000       0.00000000       0.00000000      -0.00000100      24.65838000       0.00000000      -0.00000100      -0.00000100      24.65838000" Properties=species:S:1:pos:R:3:force:R:3:Z:I:1
O              24.19390000     -4.18636000    -30.58520000     -0.02072260      0.00858605     -0.00548598       8
H              22.66690000     -3.66877000    -31.46900000      0.00851301      0.01077770      0.00822331       1
H              24.46190000     -5.72908000    -31.60600000      0.01460850     -0.00698847      0.00033670       1
O              47.32360000     45.90050000     -1.13625000      0.00315832     -0.02085960     -0.01268630       8
H              48.15450000     47.45520000     -0.71627300      0.00412198      0.00644969      0.00450305       1
H              48.03720000     45.35710000     -2.79831000     -0.00824152      0.00876993      0.01489580       1
O              11.28560000      4.52644000     14.81050000      0.03367970     -0.00990719      0.08473330       8
H              12.45780000      3.43655000     16.01500000     -0.02871000      0.05428270      0.00113503       1
H              11.66840000      3.36071000     13.63040000     -0.00199110     -0.04333400     -0.08449430       1
O              -6.08791000     -8.99630000     -2.10825000      0.08020460      0.02604170      0.01888480       8
H              -4.64800000     -9.71138000     -3.23467000     -0.03748560      0.00890934      0.02432310       1
H              -5.10489000     -7.85457000     -0.67959900     -0.04823570     -0.04249850     -0.05279180       1
O               5.05207000     33.48120000     19.72790000      0.02163500      0.01534370     -0.02153550       8
H               6.51025000     34.36660000     20.53800000     -0.01473520     -0.00440904      0.00115111       1
H               5.48399000     33.91070000     17.95440000     -0.00637208     -0.01358140      0.01183830       1
O              -5.22570000      9.67272000      7.18388000     -0.01493670     -0.01172000      0.03272030       8
H              -5.37017000      8.72307000      8.93119000     -0.01555210      0.01885220     -0.06568820       1
H              -6.57493000      9.24784000      5.87782000      0.02861870     -0.01072520      0.02855560       1
O              46.29440000     27.14930000     11.86110000     -0.11237500     -0.01073950      0.00477877       8
H              47.86370000     26.53010000     11.60060000      0.06520880     -0.02721880     -0.00353097       1
H              45.03190000     25.67790000     11.51150000      0.03879300      0.04161620      0.00350684       1
O              -2.68364000    -33.46920000      6.75452000     -0.05445240     -0.01298970     -0.01267980       8
H              -2.47913000    -32.10980000      5.45997000      0.00472726     -0.02346010      0.01667750       1
H              -4.43084000    -34.37730000      6.52894000      0.05030570      0.04005910      0.00151738       1
O              32.56260000    -33.69560000     18.87860000      0.02500150      0.03730130     -0.01079980       8
H              31.29160000    -33.95940000     17.65490000     -0.01870700     -0.01204670     -0.01267880       1
H              32.35680000    -34.68960000     20.34030000     -0.00336745     -0.01910050      0.01358260       1
O              10.10360000    -27.29200000    -25.16140000      0.00657990     -0.03245020      0.04163200       8
H              11.94720000    -27.63950000    -25.10550000     -0.01766470      0.00827800     -0.01158220       1
H               9.56321000    -28.47690000    -23.71900000      0.00158170      0.02268190     -0.03213520       1
O              -9.73739000      2.26173000      7.83749000     -0.00614456      0.00169963      0.01979650       8
H             -10.63570000      2.48081000      6.34023000      0.00314635      0.01366890     -0.05272850       1
H             -11.24150000      1.80945000      8.74418000      0.00483739     -0.01068130      0.03009160       1
O             -11.31960000     28.76170000     51.87420000     -0.00185365      0.00020190      0.00972268       8
H             -13.13170000     28.79900000     52.45970000      0.02342300     -0.00365473     -0.03036110       1
H             -10.69280000     27.99420000     50.26150000     -0.02332100      0.00430538      0.01868250       1
O              15.11360000    -29.82370000    -14.01380000     -0.04440830      0.06674300      0.00478389       8
H              15.54230000    -31.22620000    -14.84180000      0.01269400     -0.08244510     -0.06194700       1
H              16.36060000    -29.90520000    -12.81990000      0.03222680      0.01145000      0.05686840       1
O              29.28260000     14.52470000     39.07320000     -0.02824300     -0.04482250     -0.01735640       8
H              27.57320000     14.78810000     39.87200000      0.02679020      0.00057923     -0.01906670       1
H              29.10350000     12.90160000     37.95890000      0.00370649      0.04778540      0.03414120       1
O               0.20848000      0.98135800      1.48379000     -0.06877940     -0.02765140      0.02586970       8
H              -0.13886100      0.40504700      3.26835000     -0.01486420      0.00778197     -0.02810320       1
H               1.79236000      1.53263000      1.73343000      0.08205570      0.02822660     -0.00754882       1
O             -30.40880000     23.41250000     33.32570000      0.02762100     -0.05185750      0.03699320       8
H             -31.35660000     24.61110000     32.50940000     -0.03976780      0.03408420     -0.01962330       1
H             -31.55890000     22.11590000     33.99510000      0.00707057      0.01902000     -0.01224440       1
O             -33.59950000     12.00500000     24.86990000      0.02334380      0.05734480     -0.02950010       8
H             -34.07190000     10.99440000     23.36200000      0.00521699      0.01814510      0.00980131       1
H             -32.54420000     13.83090000     24.19040000     -0.02644720     -0.07691290      0.00910608       1
O             -20.67620000     65.76080000    -21.08830000      0.00892554      0.05264540     -0.00971569       8
H             -19.67520000     65.12820000    -19.69320000     -0.03216320     -0.02615230     -0.00709805       1
H             -21.79570000     64.97970000    -22.32370000      0.02507150     -0.02825190      0.03123530       1
O              68.44750000     20.46400000     39.25460000     -0.00833340      0.03732320      0.00198545       8
H              67.97110000     22.34070000     38.66070000      0.00085484     -0.06164010      0.03737260       1
H              67.92590000     19.87880000     41.06570000     -0.00638574      0.03066610     -0.04532830       1
O              57.68100000    -19.85630000      3.99073000     -0.01512400     -0.02887660     -0.02586330       8
H              57.34980000    -20.73690000      5.56496000      0.00162037      0.00469495      0.00604531       1
H              56.79450000    -21.03360000      2.73108000      0.01128780      0.02718660      0.01360770       1
O              29.55300000     17.89180000    -15.48490000      0.07854390      0.02091090      0.00754595       8
H              31.60760000     18.31790000    -15.14380000     -0.07895740     -0.01952340     -0.01715290       1
H              29.13970000     16.41830000    -14.51080000      0.00387399      0.00415611      0.00682666       1
O             -17.11260000      8.45461000     64.09510000      0.04875850     -0.01943400      0.00269001       8
H             -16.76330000      9.67361000     62.78110000     -0.00129458      0.01100290      0.00216825       1
H             -15.31130000      7.76981000     64.29790000     -0.04932040      0.01028590      0.00107406       1
O               5.63917000      1.94360000      0.47570600      0.01507830     -0.01877040     -0.05172510       8
H               4.88410000      2.64902000     -1.26965000      0.02285670     -0.03339630      0.05059480       1
H               6.77997000      0.42989600      0.02819200     -0.03266310      0.04270480      0.00713101       1
O              45.00720000      4.40795000     24.99000000     -0.04408370      0.08183710     -0.04492900       8
H              44.78510000      6.27982000     25.49550000     -0.01318310     -0.05290450     -0.00516024       1
H              46.09370000      3.79501000     26.15130000      0.05102140     -0.03473840      0.04706930       1
O              -0.31255600     60.69340000     31.98590000     -0.03366910     -0.03536680      0.01053420       8
H              -1.81428000     59.48540000     32.14280000      0.03171810      0.02250930     -0.01193680       1
H              -1.23547000     62.25200000     32.27240000      0.01136290      0.00889279     -0.00777837       1
O              10.31420000     36.81630000     12.04820000      0.02256810     -0.02535890     -0.03771100       8
H               9.76908000     36.56830000     10.27790000     -0.01973270      0.02345240      0.01070940       1
H              11.81560000     35.73730000     11.76210000     -0.00215775      0.00472826      0.02978430       1
O             -15.73470000     20.98670000     19.06860000     -0.00586876     -0.00081536      0.03279840       8
H             -15.87350000     19.13450000     19.18830000     -0.00362226      0.00980829     -0.00109440       1
H             -15.70880000     21.55570000     20.91510000      0.00823525     -0.01164510     -0.03260400       1
O              31.87900000     34.63720000     52.14780000      0.13637500     -0.03786200      0.00512871       8
H              32.43380000     32.83860000     52.45850000     -0.02530810      0.02677800     -0.00280297       1
H              30.24380000     34.94470000     52.05500000     -0.11380600      0.00748667     -0.00319414       1
O              13.74380000     34.09080000     20.46360000      0.02828130      0.02174960     -0.07108260       8
H              14.70610000     34.82860000     18.73270000     -0.03556480     -0.03564770      0.07740640       1
H              13.56770000     32.28640000     20.09510000      0.00522528      0.01133680      0.00169218       1
O               3.83809000    -25.69630000     18.03090000      0.06043560     -0.03108260     -0.00864197       8
H               2.60475000    -26.97450000     18.38430000     -0.01450720     -0.00404430      0.00213324       1
H               5.52115000    -26.72510000     18.03160000     -0.04413890      0.03261410      0.00263866       1
O              -0.62640700     19.16520000      3.37795000     -0.20245700      0.02870220     -0.04996300       8
H               0.95897400     18.91870000      3.47630000      0.16601700     -0.02991880      0.00310870       1
H              -1.36121000     19.27970000      1.53328000      0.03378260      0.00900894      0.04064170       1
O               1.70525000      0.26395700     13.27780000     -0.01678800      0.02745920      0.01045960       8
H               2.16706000     -0.57158700     11.78610000      0.01374010     -0.01801280     -0.02390770       1
H               2.71789000     -0.31507300     14.64420000      0.00721558     -0.01009400      0.01259430       1
O             -34.44350000     53.14230000    -30.84380000     -0.01591180     -0.02204250      0.01273900       8
H             -32.89340000     53.99490000    -31.36840000      0.00027861     -0.02008960      0.01279160       1
H             -34.29820000     51.89370000    -29.32390000      0.01537910      0.04032650     -0.02695420       1
O               7.13734000     51.60220000    -16.22870000     -0.04639810     -0.02655340     -0.02576340       8
H               5.93521000     52.87100000    -15.62630000      0.00207941     -0.00967924      0.00481876       1
H               6.02422000     50.08250000    -16.83640000      0.02534300      0.03879890      0.02457740       1
O             -36.36870000     40.04420000      3.69335000      0.11016600     -0.06925360     -0.03513360       8
H             -36.19150000     39.08900000      2.05482000     -0.00584567      0.00711493      0.03455260       1
H             -37.85730000     40.80920000      3.65860000     -0.09349440      0.04617280     -0.00834403       1
O              17.98600000     34.38460000     16.94760000      0.21550600     -0.00852335      0.21334400       8
H              16.95030000     34.29780000     15.83490000     -0.18491900     -0.02188300     -0.21412600       1
H              18.97200000     32.71590000     17.06430000     -0.02974760      0.03412300     -0.01229930       1
O             -17.08270000    -12.08850000      7.73747000      0.01311570     -0.03145530     -0.06823630       8
H             -16.96460000    -13.18110000      6.05530000     -0.00225306      0.03644580      0.04851510       1
H             -18.75370000    -12.46040000      8.31093000     -0.00319972     -0.00551385      0.00899666       1
O             -46.10420000      3.42078000     20.86310000      0.00259750      0.02635770     -0.04557080       8
H             -46.40260000      2.78513000     19.09630000      0.00907456     -0.00725165      0.03851990       1
H             -45.05670000      4.91399000     20.47150000     -0.00968857     -0.00437155      0.00641977       1
O             -20.81590000    -14.23000000     35.36500000      0.06363920      0.17378500      0.00730807       8
H             -20.65970000    -15.73810000     35.82580000      0.02202520     -0.18412600      0.05972100       1
H             -22.17540000    -14.17220000     34.40620000     -0.09643070      0.01145990     -0.06504180       1
O              16.64750000     14.80310000     31.96640000     -0.04623250      0.02420090     -0.03005210       8
H              17.37500000     13.26800000     32.42640000      0.00784851     -0.03573550      0.01122540       1
H              15.09300000     14.42640000     30.86640000      0.03721430      0.01086300      0.02141750       1
O             -21.35600000     -1.90108000     33.10710000     -0.02519070      0.04694670     -0.04340520       8
H             -20.99630000     -3.71243000     33.24230000     -0.00949146     -0.00147829     -0.01263910       1
H             -22.49590000     -1.23795000     31.59220000      0.03373960     -0.04455580      0.05546760       1
O              42.43830000      6.05878000     35.21050000     -0.02153620      0.03840630     -0.00592473       8
H              41.40770000      5.24580000     33.89510000      0.02438260     -0.01998800      0.01579760       1
H              43.79940000      5.27736000     36.12350000     -0.00383956     -0.02298760     -0.01193990       1
O              -8.24148000    -30.48310000     -6.23437000      0.00404983     -0.02525900      0.00136991       8
H              -7.39363000    -31.93780000     -5.39392000     -0.01820610      0.01826420     -0.00791999       1
H              -9.46979000    -31.16120000     -7.46253000      0.00922401      0.00022726      0.01296590       1
O              53.45200000    -19.45510000    -12.48950000      0.06834350      0.05247440     -0.00494433       8
H              54.97940000    -18.98620000    -11.40560000     -0.02559640      0.00705892     -0.02823700       1
H              52.84700000    -20.67620000    -11.44920000     -0.04079830     -0.05663770      0.02766490       1
O              10.46880000     -0.05685500     10.76830000     -0.02299320     -0.00086364      0.02200530       8
H              10.41710000     -1.07404000     12.39230000     -0.00106975      0.02236330     -0.02708480       1
H               8.87539000      1.03561000     10.54030000      0.03255480     -0.02501420      0.00257836       1
O             -34.04170000     -3.39415000     47.67110000      0.00303148     -0.03552930      0.01084820       8
H             -34.11710000     -4.08564000     45.98880000     -0.00151388      0.00880385     -0.01419160       1
H             -33.32460000     -4.91554000     48.51280000     -0.00172224      0.03220990      0.00469651       1
O              12.19400000     -8.48804000     -9.38421000     -0.03835770     -0.00113140      0.01316040       8
H              10.55570000     -8.59665000     -8.38038000      0.03913650     -0.00321796     -0.01769940       1
H              11.96290000     -9.78724000    -10.68440000     -0.00135079      0.00794852      0.00696346       1
O              20.99810000     16.29370000     12.61150000     -0.03995070      0.04599050     -0.00338961       8
H              19.61230000     17.88350000     12.87570000      0.06740460     -0.05084070     -0.00637669       1
H              21.77710000     16.43990000     10.94590000     -0.01479230      0.00317858      0.00640313       1
O              11.86670000     21.92270000     -9.79937000     -0.02327350      0.02016830      0.03512710       8
H              10.88850000     21.70800000     -8.17343000      0.01252370      0.01612370     -0.01057170       1
H              11.66340000     20.28360000    -10.39000000      0.00748876     -0.04286580     -0.02285320       1
O              22.97130000     48.25940000     30.18760000      0.11673500      0.02580020     -0.11993500       8
H              22.07650000     48.60990000     31.48220000     -0.09651140      0.00523778      0.12157400       1
H              23.17330000     46.75850000     29.26030000     -0.01461010     -0.04021890      0.00634616       1
O              -7.61264000      7.70822000      2.71267000     -0.03536120      0.04989060     -0.01338390       8
H              -8.10812000      9.48683000      1.91751000      0.01465690     -0.04514490      0.01854720       1
H              -9.25741000      6.75068000      2.73778000      0.02545600      0.00545483     -0.00067979       1
O              15.99770000    -24.42150000     13.71470000     -0.05666540     -0.05307400     -0.04675120       8
H              14.13630000    -25.52050000     13.45730000      0.08124510      0.04862100      0.03129340       1
H              16.05970000    -23.45530000     15.20600000     -0.01238910      0.00591374      0.02205180       1
O               0.17300900     16.65110000     40.71170000     -0.02706890     -0.04080160      0.01799890       8
H              -0.94823000     15.42390000     41.74070000      0.02237960      0.01920490     -0.01900990       1
H              -0.85681800     16.75710000     39.18050000     -0.00467046      0.00282723     -0.00189382       1
O              42.16980000     42.47650000      2.04878000      0.02851410      0.01302540      0.03148400       8
H              43.28520000     42.79690000      3.66287000     -0.06313250     -0.01925330     -0.04903240       1
H              40.47360000     41.63930000      2.14126000      0.03219470      0.01258270      0.03434560       1
O              21.80850000     13.22310000    -30.61610000     -0.04776720      0.05310220     -0.03879600       8
H              22.89150000     12.26870000    -29.65150000      0.03537280     -0.04634310      0.02751300       1
H              20.62080000     12.33960000    -31.74210000      0.01313520     -0.00543191      0.01745760       1
O             -15.71330000     42.86820000      3.22244000     -0.04033110     -0.02522080      0.00311816       8
H             -17.39910000     41.91310000      3.45311000      0.03711460      0.03195390     -0.01930770       1
H             -15.15940000     43.18170000      4.92052000     -0.00306398      0.01212140      0.01272830       1
O               9.87645000    -29.56530000     32.99790000      0.01437730      0.05171980      0.02432110       8
H              11.38080000    -30.01090000     34.03350000     -0.02056430      0.00752231     -0.01586840       1
H               9.77477000    -27.56750000     33.27760000      0.00712524     -0.06104680     -0.00310600       1
O               2.20164000     36.50950000      2.57621000     -0.03346680     -0.00773344      0.05769350       8
H               0.87401500     36.20930000      4.00654000      0.04185490      0.01206790     -0.02232060       1
H               1.26253000     35.95840000      1.19488000     -0.01121890     -0.01175510     -0.03956620       1
O             -10.51850000    -15.95160000     13.10620000      0.03757610     -0.08012250     -0.03179920       8
H             -11.24660000    -17.61610000     13.86250000      0.01164540      0.04589200     -0.01789970       1
H              -9.08576000    -16.90610000     11.76820000     -0.04369960      0.03539430      0.05459730       1
O              -4.86257000      4.74926000     16.88780000      0.06478620     -0.00133715      0.01850930       8
H              -3.35917000      5.19365000     18.30910000     -0.04222180     -0.02263910     -0.04160380       1
H              -4.01277000      3.67599000     15.55770000     -0.01535590      0.02348970      0.02300350       1
O              25.24550000    -14.20890000     -3.04248000      0.02494300     -0.03406970     -0.03722900       8
H              24.18830000    -15.80590000     -3.20428000      0.02680120      0.03115380     -0.00037559       1
H              26.98090000    -14.58930000     -4.14615000     -0.05372730      0.00524234      0.04175120       1
O              22.96860000      5.67856000     45.35140000      0.01216350      0.00501947      0.00008105       8
H              21.83520000      5.35612000     46.78420000      0.01101830     -0.01109400      0.00227253       1
H              24.69140000      5.00525000     45.71480000     -0.02281500     -0.00163988     -0.00155490       1
O              15.71210000     26.50470000     47.67690000      0.03751570     -0.04123110      0.02242870       8
H              17.76360000     26.92080000     48.08290000     -0.08650500     -0.02720830     -0.00802837       1
H              15.04230000     24.55220000     48.01550000      0.05157100      0.06629030     -0.01085450       1
O             -16.01120000     11.74230000     22.09170000     -0.00556755     -0.05701910      0.05831960       8
H             -14.32630000     11.04780000     21.64470000     -0.01563280      0.00787826      0.00463566       1
H             -16.57790000     10.71160000     23.78350000      0.02660470      0.04450590     -0.05155460       1
