192
TotEnergy=-1103.71977000 cutoff=-1.00000000 nneightol=1.20000000 pbc="T T T" Lattice="25.19930000       0.00000000       0.00000000      -0.00000100      25.19930000       0.00000000      -0.00000100      -0.00000100      25.19930000" Properties=species:S:1:pos:R:3:force:R:3:Z:I:1
O              13.93450000     22.40120000     17.15560000      0.00246416      0.00132945      0.01211490       8
H              12.72380000     21.93980000     15.91260000     -0.00563619     -0.00569612     -0.00322990       1
H              13.33100000     21.76100000     18.77450000      0.00306414      0.00298647     -0.01329350       1
O              24.16880000     24.44320000     13.34540000      0.00330440      0.00676738      0.00606556       8
H              25.03730000     24.54470000     14.95950000     -0.00389299     -0.00222987     -0.00757148       1
H              22.40580000     24.26460000     13.77210000     -0.00152728     -0.00075288      0.00184781       1
O               1.60326000     22.39170000     18.67850000     -0.00441731     -0.00204238     -0.00118969       8
H               3.08990000     22.16370000     19.74120000     -0.00111685      0.00152979     -0.00195627       1
H               0.20842400     22.00170000     19.78750000     -0.00074013     -0.00165786     -0.00272893       1
O               0.87992700     10.72730000      7.08828000      0.00125104      0.00682201      0.00845727       8
H               0.58559100     11.66250000      8.64382000     -0.00105648      0.00077725     -0.00460439       1
H               2.18194000      9.51027000      7.58935000     -0.00179860     -0.00168680     -0.00097393       1
O               7.33121000      3.44714000      8.11739000      0.00718928     -0.00417299     -0.00280801       8
H               9.08128000      2.96510000      8.43596000     -0.01052400      0.00513487      0.00208267       1
H               6.39838000      2.63399000      9.47473000     -0.00043517     -0.00188272      0.00012829       1
O              15.78900000     11.80510000     18.19290000      0.00224172      0.00000420      0.00398046       8
H              14.48020000     13.05190000     18.57770000      0.00047597     -0.00165532     -0.00285634       1
H              17.18420000     12.21240000     19.29290000     -0.00226934     -0.00158696     -0.00212688       1
O               6.03614000      2.06972000     23.14240000      0.00544080      0.00440215      0.01292600       8
H               7.09916000      2.75826000     24.50480000     -0.01162060     -0.00644348     -0.01169210       1
H               6.62432000      2.79225000     21.59550000      0.00410534      0.00284556     -0.00253502       1
O               9.16711000     21.42750000      1.40299000      0.00061754      0.00537505     -0.00088510       8
H              10.78860000     21.80180000      2.15048000      0.00264822      0.00183691     -0.00116060       1
H               9.18606000     19.61980000      1.34141000     -0.00292538     -0.00026939      0.00089821       1
O              15.94050000     14.85940000      8.50253000     -0.00289803      0.00156464     -0.00105490       8
H              14.72210000     14.69330000      9.87087000      0.00182277      0.00243395     -0.00320560       1
H              14.93260000     14.90080000      6.99561000      0.00041445      0.00030899      0.00165352       1
O              13.52330000      3.70129000     14.42060000      0.04160120      0.00246131      0.02535550       8
H              14.94140000      3.41404000     15.74020000     -0.03376070      0.00858379      0.00055935       1
H              12.59930000      5.40806000     14.77510000      0.01846450     -0.00279517      0.00139652       1
O              14.98100000      6.39329000      9.66051000     -0.00520158      0.02289440      0.00217387       8
H              16.52770000      7.44269000      9.41354000     -0.00590824     -0.00633876      0.01200220       1
H              13.79390000      7.73076000     10.17720000      0.01114060     -0.01820130     -0.00553048       1
O              18.19890000      4.41899000      1.82686000     -0.00187868     -0.00042235      0.01149660       8
H              19.14020000      5.15520000      3.21751000     -0.00402238     -0.00166554     -0.00731835       1
H              16.85970000      3.43006000      2.60342000      0.00813599      0.00618360     -0.00365226       1
O               5.45838000     21.55800000     22.00980000      0.00900654     -0.00209248      0.00971871       8
H               5.87237000     20.05340000     22.96060000     -0.00100249      0.00605633     -0.00610954       1
H               6.67775000     22.82560000     22.51080000     -0.00509581     -0.00428175     -0.00077039       1
O              10.01340000     20.31820000     10.52640000     -0.00225534      0.00083537      0.00416436       8
H              11.17000000     18.92540000     10.34720000     -0.00498978      0.00537789      0.00012543       1
H               8.24448000     19.62880000      9.72919000      0.00530895     -0.00274853     -0.00745086       1
O              21.55760000      2.10538000     23.93720000     -0.00591391     -0.01453020     -0.01013930       8
H              20.52190000      0.80755000     23.13170000      0.00869429      0.01090080      0.00805474       1
H              20.35910000      3.08023000     24.93960000     -0.00221922     -0.00053364      0.00044868       1
O               2.65741000     21.02130000      1.92177000      0.00114269     -0.00119239     -0.00446110       8
H               3.27734000     19.35230000      1.48431000      0.00228366      0.00821201     -0.00137794       1
H               3.54301000     22.15170000      0.79884200     -0.00065636     -0.00535761      0.00163679       1
O              21.14460000      6.98944000     20.03480000     -0.00088328      0.00068477     -0.00195948       8
H              21.02160000      8.45317000     21.12930000      0.00055546     -0.00396506     -0.00137806       1
H              22.88660000      6.46570000     20.09420000     -0.00202432      0.00226275      0.00356608       1
O              19.64450000     14.20100000     12.14130000     -0.01029760     -0.00578622      0.00091767       8
H              17.97660000     13.79640000     12.85660000      0.01092960      0.00691196      0.00091610       1
H              19.42260000     15.70670000     11.09500000     -0.00047206     -0.01065790     -0.00211897       1
O              12.06260000      6.83363000      3.87163000      0.01092230      0.00160720      0.02073920       8
H              12.78560000      6.60721000      5.57679000     -0.01120280     -0.00061975     -0.02509530       1
H              10.92710000      5.45647000      3.50987000      0.00123145     -0.00180692      0.00396523       1
O               7.52413000     22.62740000     15.33910000     -0.00308485     -0.00749845     -0.00825165       8
H               8.98426000     21.56690000     15.45120000     -0.00020505      0.00004000     -0.00017546       1
H               6.57911000     21.71830000     14.05990000      0.00201255      0.00428286      0.00478612       1
O               8.28114000     12.15900000     10.18570000      0.00146105     -0.00482051     -0.00157298       8
H               8.15533000     10.70310000      9.07281000     -0.00311260      0.01659460      0.00664562       1
H               7.10637000     13.44270000      9.61675000      0.00476803     -0.00324878     -0.00422052       1
O              24.72450000      3.30169000      8.17161000      0.00695597     -0.00194490     -0.00449577       8
H              24.43110000      2.40576000      9.71661000      0.00081403     -0.00433951      0.00347288       1
H              25.73680000      2.19529000      7.10640000     -0.00875613      0.00722813      0.00317263       1
O               3.86473000     16.39530000     24.17220000     -0.00681827      0.00537376      0.00631792       8
H               3.97350000     15.05370000     25.40940000     -0.00034425     -0.00199082     -0.00151673       1
H               2.07277000     16.53630000     23.87270000      0.00462723     -0.00145029     -0.00455937       1
O              25.38520000     13.48040000     11.90110000      0.00915144      0.00385766      0.00592245       8
H              26.86930000     14.40780000     12.44460000     -0.00587258     -0.00150312     -0.00494142       1
H              24.14400000     13.94630000     13.13740000     -0.00025150     -0.00197556     -0.00134575       1
O              17.60190000     10.62700000      4.34618000      0.01213290      0.00914243      0.00180391       8
H              18.36220000     12.15870000      5.01559000     -0.00641038     -0.00879660     -0.00280469       1
H              19.02790000      9.49018000      4.25514000     -0.00599200     -0.00022042      0.00132639       1
O              11.43380000      1.02198000     10.10620000      0.00579376     -0.02129710      0.01230150       8
H              10.45390000     -0.55960000     10.16100000      0.00959895      0.00434796     -0.00406634       1
H              12.62550000      0.77342300     11.48500000     -0.01370950      0.00280805     -0.01389030       1
O              19.07810000      9.42855000     11.35380000      0.01504980      0.01202430     -0.00779870       8
H              20.50180000      8.50698000     10.66430000     -0.00613859      0.00894233      0.00117431       1
H              19.94670000     12.44090000     11.16300000     -0.01255760     -0.02193530      0.00668169       1
O               7.93520000      2.63424000     16.94370000     -0.00074587     -0.00179784     -0.00060022       8
H               6.89597000      1.40141000     16.05060000      0.00778920      0.00608036      0.00351222       1
H               9.57379000      1.86551000     17.02360000     -0.00436370     -0.00461039     -0.00019678       1
O              12.59350000     19.13540000     21.76080000      0.00482095     -0.00001336      0.00855542       8
H              12.18240000     17.97150000     23.13830000     -0.00313770      0.00478647     -0.00003580       1
H              13.43650000     20.52450000     22.60880000     -0.00158975     -0.00462010     -0.00578047       1
O               0.70465400      4.51919000     15.09460000      0.00621322     -0.00223934      0.01055120       8
H              -0.93608000      5.21572000     14.81580000     -0.00346942     -0.00144929     -0.00171013       1
H               0.70958900      4.10110000     16.88430000      0.00246829      0.00234387     -0.00565238       1
O               0.59183400     20.65580000     10.23110000      0.00490235     -0.00092075      0.00095341       8
H               1.48407000     19.98510000     11.69250000     -0.00153513     -0.00383602     -0.00585685       1
H              -0.02743200     22.25980000     10.84000000     -0.00209796     -0.00354541      0.00225782       1
O               3.82503000      9.83658000     17.33840000     -0.00102630      0.00200221     -0.00502943       8
H               3.49356000      9.41133000     15.59010000      0.00389124     -0.00051667      0.01113050       1
H               5.35952000      8.98801000     17.85870000     -0.00129841     -0.00055238     -0.00229636       1
O              13.57120000     11.15900000      0.77218500      0.01022590     -0.00070992      0.00398054       8
H              12.89720000     10.00740000      2.04836000      0.00329171      0.00278660     -0.00669623       1
H              15.31290000     11.44440000      1.34151000     -0.01301640     -0.00834770     -0.00228650       1
O              22.32820000     20.11500000     21.30770000      0.00045350      0.00108735      0.00042471       8
H              21.29660000     20.80500000     22.63360000     -0.00122357     -0.00336299     -0.00397239       1
H              21.21120000     19.27310000     20.13880000     -0.00023836      0.00296198      0.00230277       1
O               8.05085000      7.08746000     19.78600000     -0.00235211      0.00077609     -0.00006924       8
H               7.97041000      5.56534000     18.77050000      0.00279517      0.00222820      0.00044563       1
H               9.79043000      7.34031000     20.30550000     -0.00225734     -0.00123945     -0.00338835       1
O              21.74050000     14.81440000      2.99034000      0.02343640     -0.02763910      0.00251411       8
H              22.60170000     16.37240000      3.37764000      0.00083201      0.00751991      0.00535977       1
H              23.12290000     13.57900000      3.26947000     -0.02184280      0.01670550     -0.00377705       1
O               7.55738000     14.96050000      4.19521000     -0.00477856      0.01120750      0.00628151       8
H               6.10586000     14.00450000      3.65924000      0.00052176      0.00179890      0.00207667       1
H               6.92708000     16.26290000      5.40212000      0.00439396     -0.00440232     -0.00114022       1
O               8.45923000      2.35447000      2.85503000     -0.00119959      0.00286150      0.00192390       8
H               7.39393000      2.56811000      4.35256000      0.00795441     -0.00789634     -0.00968340       1
H               8.59988000      0.57524700      2.45329000     -0.00433478      0.00459428      0.00904295       1
O              11.47730000     16.07940000      0.78916700      0.00246096     -0.00429559     -0.00435068       8
H              10.04690000     15.66150000      1.87208000     -0.00052932     -0.00032082      0.00260356       1
H              12.33600000     14.46800000      0.55550400     -0.00390709      0.00079997      0.00360305       1
O               2.86824000     18.59160000     14.82810000     -0.00419257      0.00842681      0.00968529       8
H               2.25680000     19.58030000     16.27450000      0.00301005     -0.00286576     -0.00918321       1
H               4.34565000     17.76800000     15.48740000     -0.00064581     -0.00422452      0.00123250       1
O               0.80736000     11.22290000     21.69160000      0.00607778     -0.01172060     -0.01097980       8
H               1.22539000     11.01930000     23.45100000      0.00189350     -0.00556602     -0.00757066       1
H               1.64289000      9.89213000     20.66960000     -0.00893605      0.02079420      0.01772180       1
O              19.71050000      4.36243000     15.08980000     -0.00021577      0.01980680      0.00476678       8
H              19.83670000      5.49182000     13.63490000     -0.00474952     -0.00220333      0.01033100       1
H              19.85120000      5.50757000     16.55860000     -0.00068063     -0.01011790     -0.01482880       1
O              18.44690000     19.74200000      3.59698000      0.00333778     -0.01629370      0.00746822       8
H              18.38260000     17.99660000      4.16858000     -0.00201521      0.01143720     -0.00636490       1
H              20.14330000     20.22770000      4.04770000      0.00073674      0.00310976      0.00033364       1
O              12.93960000      8.40556000     14.51420000     -0.00182012      0.01893900      0.00577313       8
H              11.84040000      9.62401000     15.34740000      0.00526991     -0.01016580     -0.00617184       1
H              14.57820000      9.26934000     14.43110000     -0.00959630     -0.00995805      0.00213107       1
O              11.69830000     14.99040000     18.42770000      0.00324665      0.00837012      0.00608171       8
H              10.18420000     14.49570000     19.31740000     -0.00133581      0.00106718     -0.00634643       1
H              12.14760000     16.61360000     19.18780000     -0.00135234     -0.00571592     -0.00226086       1
O              20.30780000     11.95010000     23.09510000      0.01219070      0.00724830     -0.02324700       8
H              21.52400000     12.76650000     21.94900000     -0.01028200     -0.01132930      0.01505320       1
H              20.82390000     12.54500000     24.72640000     -0.00263366      0.00276462      0.00417646       1
O              15.87460000     23.94020000     22.86210000     -0.00267743      0.00208807      0.00121854       8
H              15.16200000     25.54850000     22.37940000      0.00509875     -0.00481887     -0.00101567       1
H              15.40790000     23.67560000     24.62410000     -0.00048828      0.00350844     -0.00049980       1
O              24.16220000     19.17180000      5.15504000      0.00068738     -0.00030825      0.00321391       8
H              25.45700000     19.84790000      4.05636000     -0.00123988      0.00456407      0.00119098       1
H              24.87530000     19.32120000      6.84806000     -0.00449983      0.00060776     -0.00314687       1
O               3.95387000      7.13923000      9.13844000     -0.00593083     -0.00340492      0.00035611       8
H               2.67357000      5.88603000      9.52694000      0.00666582      0.00467974     -0.00293074       1
H               5.43378000      6.16628000      8.63366000     -0.00342713      0.00137196      0.00019461       1
O              14.26980000     22.90320000      2.59216000      0.00166286     -0.00192753      0.00205205       8
H              15.42910000     21.55890000      3.07871000      0.00033277      0.00251033     -0.00112025       1
H              14.63810000     24.22400000      3.79176000      0.00114092     -0.00034226     -0.00078847       1
O               6.18290000     18.49950000      8.37689000      0.01465260     -0.01256880      0.00096194       8
H              14.66970000     29.43420000     13.06500000     -0.00715526      0.00668892     -0.02150830       1
H               4.66889000     19.45250000      8.48907000     -0.00679519      0.00325440     -0.00113273       1
O              12.60210000     14.53190000     12.61220000     -0.00774324     -0.01071790     -0.00676020       8
H              12.26490000     14.80500000     14.37510000     -0.00288709      0.00232587      0.00150680       1
H              11.05530000     13.82390000     11.85520000      0.00900912      0.00410180      0.00646829       1
O              16.09680000      3.74896000     19.73370000      0.00294102      0.00344468     -0.00036636       8
H              15.07000000      4.96145000     20.68210000      0.00141850      0.00019299     -0.00648265       1
H              17.80660000      4.33098000     20.06460000     -0.00580829     -0.00272116     -0.00062148       1
O              15.81750000      1.52956000      6.18741000     -0.00661186      0.00233536      0.00235581       8
H              14.21930000      1.82241000      7.02685000      0.00324591     -0.00231517      0.00124199       1
H              16.91270000      2.79600000      6.87489000      0.00004895     -0.00015872      0.00037582       1
O              13.35820000      7.93260000     21.06220000     -0.00176787      0.00605455      0.00202439       8
H              14.31450000      9.00358000     19.89540000     -0.00408271      0.00006901      0.00637466       1
H              13.30080000      8.87745000     22.64500000      0.00382269     -0.00248038     -0.00343901       1
O               3.63831000      7.11448000      1.64844000     -0.00241909     -0.00318981      0.00557489       8
H               3.87385000      5.88329000      0.34362200      0.00142914     -0.00093147     -0.00363739       1
H               2.72134000      6.20814000      2.93412000      0.00193193      0.00165354     -0.00304801       1
O               5.39518000     15.19610000     18.80170000      0.00020770     -0.02504960     -0.02443390       8
H               5.32992000     16.00200000     20.39190000     -0.00922877     -0.00119508      0.01754000       1
H               4.43693000     13.58820000     18.83760000      0.01152930      0.02382330      0.00465510       1
O              19.06570000     18.53560000     16.16880000     -0.00120005      0.00415428      0.00170731       8
H              17.65540000     19.55370000     16.72440000      0.00024084     -0.00263872     -0.00068979       1
H              20.17870000     19.82030000     15.52060000     -0.00018710     -0.00320230      0.00126082       1
O               4.42532000      1.39002000     12.12040000     -0.00163418     -0.00559221      0.00010057       8
H               4.05249000     -0.39314800     12.06490000     -0.00167620      0.00772416     -0.00019758       1
H               3.05189000      2.20533000     13.01050000     -0.00046554     -0.00009790     -0.00102605       1
O              22.20480000      7.44518000      5.49690000      0.01293710     -0.02124590      0.02014270       8
H              23.09620000      9.00368000      5.83972000      0.00352454     -0.00156675      0.00017635       1
H              23.11130000      6.23847000      6.64765000     -0.01765810      0.01513220     -0.02271170       1
O               2.75137000     12.30980000      2.42868000      0.00732243     -0.00467450     -0.00003930       8
H               3.43353000     10.61460000      2.03932000     -0.01065170      0.01164550      0.00823151       1
H               2.19531000     12.28000000      4.19914000      0.00295557     -0.00801743     -0.00962480       1
O               0.67877200      3.80926000     21.18120000     -0.00249381     -0.00075556      0.00260343       8
H               2.12542000      2.98851000     21.92220000      0.00092172      0.00154865     -0.00149619       1
H              -0.74727300      3.21914000     22.17750000      0.00042563     -0.00070683     -0.00224920       1
O               0.94891900      1.70731000      2.49324000     -0.00849819     -0.00182339     -0.00034799       8
H               0.91409700     -0.10024400      2.28013000      0.00220742      0.00312661      0.00234072       1
H              -0.58127500      2.24271000      1.65056000      0.00343086     -0.00177274      0.00129391       1
O              19.07500000     23.75850000     15.32560000     -0.01892090      0.00305776     -0.02648000       8
H              19.04710000     25.34300000     16.17820000      0.00350326      0.00850006      0.00808678       1
H              17.61630000     23.92210000     14.18110000      0.01945620     -0.00896692      0.01628640       1
