192
Lattice="24.47185 0.0 0.0 0.0 24.47185 0.0 0.0 0.0 24.47185" Properties=species:S:1:pos:R:3:force:R:3 TotEnergy=-1103.41376 cutoff=-1.0 nneightol=1.2 pbc="T T T"
O        1.44505000      21.91548000      13.43880000      -0.02730100       0.00409037      -0.01622420
H       24.03620000      22.14236000      13.26070000       0.03912640      -0.01543650      -0.00084136
H        2.06535000      20.29657000      12.72230000      -0.01498310       0.01372970       0.00928942
O        1.88910000      24.24005000      23.35365000      -0.01034240       0.01592740      -0.05532740
H        0.29310000       0.68040000      22.82971000       0.02331420      -0.01254330       0.02070090
H        2.79340000      24.25645000      21.67547000      -0.01376440      -0.00852637       0.03212820
O       13.59240000       0.52321100      16.99210000       0.03164240      -0.10625600      -0.08940300
H       13.68540000       1.64331000      18.23070000       0.01888630       0.06318790       0.07675940
H       15.11770000      23.63890400      17.02180000      -0.05656430       0.04165850       0.02175220
O       21.02956000      11.15925000      22.82897000      -0.03026560       0.01382540       0.02454790
H       22.24058000      10.64675000      21.61594000       0.01898420      -0.00040801      -0.01710730
H       21.15236000      12.92545000      23.34763000       0.01270290      -0.00832651      -0.01122750
O        3.83169000       9.89725000      18.07910000       0.04791500      -0.03391670       0.00335613
H        5.47467000       9.38375000      19.22460000      -0.04820480       0.02747640      -0.01946200
H        4.23193000       8.93395000      16.54630000      -0.00223661       0.00963515       0.01261770
O       17.47040000      11.28560000       7.35767000       0.08002120      -0.12407500       0.00777638
H       16.43981000      12.56910000       7.29840000      -0.07951520       0.10711200      -0.01446560
H       17.21636000      10.16220000       5.90911000      -0.00166080       0.01588300       0.00413063
O       19.36475000       5.17335000      12.91240000      -0.01380570      -0.05806920       0.03210460
H       21.18455000       4.48475000      12.86560000      -0.06014520       0.00559759       0.00299924
H       17.93825000       3.60795000      13.57690000       0.07240700       0.05104090      -0.03988110
O        2.74459000      13.77530000       7.86076000      -0.09782080       0.08023450       0.02058550
H        4.00993000      12.69460000       7.97632000       0.08464950      -0.06580790       0.01248420
H        2.54334000      14.67590000       9.54915000       0.00969534      -0.00781408      -0.03359720
O        8.40915000      14.00590000      17.82310000      -0.01337220       0.05758700      -0.07438920
H        6.61175000      14.16090000      17.52290000       0.00924086      -0.00212036       0.00447960
H        8.56005000      13.11740000      19.25510000       0.00694326      -0.05314330       0.07137510
O       10.86000000      20.14470000      23.68850000       0.03033310      -0.02428980       0.01081140
H       12.80540000      20.69500000      23.77870000      -0.03166990      -0.01941310       0.01374170
H       10.53000000      18.67960000       0.44405000       0.01447030       0.03636560      -0.02184010
O       10.47075000       5.02341000       7.96737000      -0.01022580       0.01185940      -0.00588275
H       10.54265000       3.17870000       7.91053000       0.01232400      -0.00131058       0.00855137
H       12.04495000       5.78206000       8.51163000      -0.00401988      -0.01266790      -0.00014769
O       14.50366000       3.89115000       2.09730000      -0.01253930      -0.03810840      -0.01608930
H       12.80235000       3.10045000       1.79330000       0.02792430       0.01886150       0.00661371
H       15.76917000       2.54895000       1.53100000      -0.01843580       0.02569630       0.01100830
O       11.19240000      17.78360000       7.82295000      -0.02648540      -0.02582890      -0.03282590
H       10.27310000      17.18190000       6.18865000       0.02476170       0.01631400       0.03216810
H       10.64490000      16.49370000       8.99905000       0.00193667       0.00879938       0.00126229
O        1.44215000      14.35540000      15.95485000      -0.07006520       0.02036870      -0.00676192
H       24.05820000      13.76740000      16.16555000       0.04332230       0.01584850      -0.00914393
H        2.47125000      13.06420000      16.49425000       0.02397520      -0.04070070       0.01976530
O        5.01500000       1.44108000       2.52339000       0.16439900       0.05548870       0.19204700
H        4.65321000       0.48607500       4.18861000       0.01804310       0.01684720      -0.02971760
H        3.87532000       0.98653200       1.58361000      -0.18087100      -0.07274160      -0.16017000
O       16.30880000       1.67165000       7.26365000      -0.00352414       0.05876650      -0.02932780
H       18.21240000       1.45645000       6.99795000      -0.04869700       0.01205700      -0.00802742
H       15.54840000       3.36775000       6.33765000       0.04369720      -0.07609290       0.03282940
O       16.12550000      11.88430000      22.92920000       0.04665940      -0.03979720      -0.13309500
H       15.61320000      11.59000000      20.95950000      -0.01754270       0.01917790       0.07504380
H       18.00520000      11.42590000      22.10370000      -0.03408850       0.01695110       0.05805290
O        3.88785000      15.36240000       3.15525000      -0.01468270      -0.03877650      -0.00971395
H        3.33415000      14.98890000       4.97545000       0.00995507       0.00423951      -0.03173480
H        3.56785000      13.70850000       2.13725000       0.01425110       0.04510440       0.03833190
O       19.99820000      21.59180000      13.30615000       0.01247610      -0.00557542       0.04210590
H       18.58440000      22.68800000      13.03635000      -0.00762714       0.00944401      -0.01386600
H       20.04260000      21.45750000      15.17455000       0.00473900      -0.00616379      -0.02590190
O       10.38310000      10.91955000       4.22634000       0.00853450      -0.03740300      -0.06067100
H        9.24920000       9.83205000       2.99754000       0.04589650       0.03480570       0.03919380
H       12.25060000      10.60425000       3.61865000      -0.05132190      -0.00378588       0.01254480
O        3.23155000      16.98950000      12.11105000       0.06938140       0.04203280      -0.08639770
H        5.16075000      16.66050000      11.77545000      -0.05735720       0.00021151       0.02337010
H        2.59555000      16.03090000      13.38695000      -0.01850170      -0.04159480       0.06006850
O        8.54415000       6.85642000      15.43470000       0.02670570       0.01052620       0.01444250
H        9.65055000       8.19125000      14.61130000      -0.01412510      -0.02370240       0.01584220
H        9.47355000       6.19988000      16.94800000      -0.01831970       0.01417810      -0.02614520
O        9.72577000       1.96519000      24.44989900      -0.03874740      -0.05685400      -0.01542580
H        7.75368000       1.66938000       0.25876400       0.06673330       0.00763108       0.00268657
H       10.38230000       0.21128600      23.91580300      -0.02334910       0.04712020       0.01613560
O       20.90965000       0.68693600       4.88015000       0.02729780       0.02779940       0.05969820
H       21.90445000       1.98197000       5.99465000      -0.02693310      -0.02570870      -0.05093280
H       21.79925000      23.68812700       5.52125000      -0.00422848      -0.01722080      -0.01018280
O       22.05575000      13.12600000      10.12705000      -0.01488590      -0.00976485       0.00360947
H       20.45287000      12.58400000       9.39345000       0.01868190      -0.01322540      -0.00635924
H       23.48708400      12.14690000       9.49565000      -0.01448750       0.00752698      -0.00269400
O        8.03747000      15.21935000      12.13090000      -0.01605970       0.06274200      -0.01320580
H        8.13019000      13.66865000      11.36200000       0.00574781      -0.04815770      -0.01481210
H        8.65826000      15.28135000      13.77560000       0.01450310      -0.01284100       0.02600570
O       11.70625000      18.61480000      19.10980000      -0.04225800      -0.02342660       0.03088080
H       10.83345000      16.98780000      18.62120000       0.01781340       0.02593690       0.00366096
H       11.31875000      18.95430000      21.13840000       0.00247190       0.00054718      -0.02849760
O        4.21885000      10.32545000       1.50540000       0.09617350       0.01992420       0.02923020
H        4.93165000       9.00215000       2.67110000      -0.00518541       0.01833950      -0.01579790
H        2.66415000       9.86055000       1.11430000      -0.09833790      -0.03588060      -0.02503620
O       10.83690000       5.96145000      20.77360000      -0.09081590      -0.00836657       0.01475670
H       12.51090000       6.11595000      20.57130000       0.08331420       0.00836194      -0.00867385
H       10.59920000       4.66215000      22.04530000      -0.00110593      -0.00238013      -0.00199778
O        3.74171000      23.61430000      17.66890000      -0.02089250       0.02638430       0.09631010
H        3.00072000      23.84830000      16.15110000      -0.01513160      -0.01495480      -0.07256050
H        5.34730000      22.94720000      17.76990000       0.04189020      -0.01231120      -0.01961790
O        0.84429600      19.48310000       1.50844000      -0.00848315      -0.03504390       0.01156670
H        2.39232000      18.51940000       1.57416000      -0.00313039      -0.00172673       0.00116771
H        1.09279000      20.93690000       0.55177200       0.01158320       0.03486400      -0.01917220
O       24.30527700       2.58224000      12.46310000       0.03180250      -0.19002900       0.08740780
H        0.04632500       3.82033000      11.50650000       0.02166490       0.17595700      -0.12048300
H        1.31752000       1.52167000      11.69770000      -0.04934560       0.01643650       0.03502690
O       16.01000000       4.74950000      20.42890000       0.01484180       0.04036970      -0.05043180
H       16.77690000       6.18870000      19.35120000      -0.01834300      -0.04169890       0.03008820
H       16.57320000       4.98740000      22.10170000       0.00543839       0.00185473       0.01746580
O        6.95209000       6.81590000       3.64225000       0.00493593       0.04694880      -0.01594840
H        8.06428000       6.63270000       5.00195000       0.02265010      -0.00847213       0.02618440
H        6.06027000       5.33770000       3.49105000      -0.02404050      -0.05226380      -0.00727372
O        9.29310000      15.95295000       3.21158000      -0.07248350       0.08303350      -0.02008440
H        9.72340000      14.27475000       2.98662000       0.00031903      -0.04744170      -0.00366789
H        7.31770000      16.33015000       2.68882000       0.06705450      -0.03225640       0.02758100
O       13.45970000      10.85785000      17.65280000      -0.05432540       0.01457880       0.02458500
H       14.94140000      10.48695000      16.92530000       0.08758250      -0.02336980      -0.02079070
H       12.59780000      11.02655000      16.08750000      -0.03053100       0.00887344      -0.00459694
O        7.24045000      11.27205000       8.36416000       0.00304588       0.06479600       0.00914730
H        8.22855000      11.29105000       6.88413000       0.02046020       0.00187132      -0.02272050
H        6.87905000       9.63525000       8.72917000      -0.02035560      -0.06822450       0.01713010
O        0.12670000       2.93773000      18.03580000      -0.03750940       0.02815470       0.00087868
H        1.61490000       2.06251000      18.04440000       0.05604200      -0.03290590       0.01936920
H       24.30585000       2.85195000      16.26590000      -0.01741850       0.00811782      -0.01952920
O        1.00765000       6.73755000       9.34275000      -0.15784800      -0.03977000      -0.03628180
H        2.58455000       7.12905000       9.31785000       0.14559400       0.03095040       0.00270391
H        0.58335000       6.20745000       7.56545000       0.00833608       0.00522194       0.03243660
O       17.16760000      16.12490000       1.11075000      -0.00740063      -0.03353940      -0.05578270
H       16.79880000      15.84390000       2.78505000      -0.00512641       0.00475091       0.05700580
H       16.43140000      14.52000000       0.31195000       0.01853090       0.03605800       0.00159531
O        3.80345000      23.66248900       7.15365000      -0.02300050       0.01101350      -0.01920910
H        4.90845000      23.26572000       8.47225000       0.01914360      -0.00708297       0.02253350
H        2.18465000      22.87017000       7.52305000       0.00494798      -0.00430389      -0.00717666
O       15.19315000       7.84330000      10.45545000       0.01540670       0.07122730      -0.04987460
H       16.39255000       6.94794000      11.41745000       0.01915050      -0.01288640       0.00977355
H       16.33855000       9.32260000       9.35415000      -0.03884690      -0.05075120       0.03595560
O       20.52908000      18.59100000      18.18660000       0.00529284      -0.03134420       0.04719760
H       20.91861000      17.70400000      19.88733000      -0.00231802       0.04515230      -0.01155480
H       20.44737000      16.93470000      17.50975000      -0.00384285      -0.01260430      -0.04124730
O        6.11010000       6.74495000      10.54205000      -0.00935728       0.01585940       0.03672670
H        6.55730000       6.82835000      12.38585000      -0.00198553      -0.01049080      -0.03237740
H        7.49210000       5.99855000       9.66695000       0.01986210      -0.01501850      -0.00070309
O        8.90625000      22.43345000      16.52430000       0.08814710       0.01147550       0.06729920
H       10.44410000      23.89827800      16.55870000      -0.05264000      -0.05722950      -0.00231630
H        9.77343000      21.11650000      17.98000000      -0.03376890       0.04505750      -0.06660020
O       15.85820000      21.16172000      23.68845000      -0.00520104       0.00635367      -0.02985530
H       15.94420000      20.88066000      21.58565000       0.00558197       0.00573177       0.02669850
H       16.86520000      19.89144000       0.02640000      -0.00753800      -0.01099350      -0.00222356
O       10.94570000      10.23785000      12.50715000       0.01692510      -0.02310180      -0.05504220
H        9.56675000      10.05395000      11.16045000       0.03952470       0.00625770       0.03082630
H       12.61780000       9.46115000      11.65835000      -0.04479830       0.01478440       0.02229480
O       20.88700000      17.95490000       9.73336000       0.00394372      -0.03066040       0.02059980
H       21.08500000      19.02340000      11.34680000      -0.01333000      -0.03606210      -0.03365940
H       21.08710000      15.91730000       9.89331000       0.01399580       0.07857590       0.00822461
O       15.81910000      20.67280000      18.93338000      -0.03412390      -0.01406070      -0.01256910
H       13.82350000      19.56170000      18.61696000       0.04515300       0.01387450       0.01050130
H       17.22580000      19.59190000      18.43808000       0.00290931       0.00276188       0.00196913
O       23.79240000      20.81185000       6.31475000      -0.01309220      -0.03781790       0.04389600
H       23.12960000      19.54655000       7.66025000       0.00249178       0.03478030      -0.02228170
H       24.37630000      19.60465000       5.08575000       0.00348673       0.01216800      -0.01394260
O       14.98858000       8.95963000       2.42112000       0.02501290       0.08134710      -0.03842580
H       15.72148000       9.42765000       0.67010600      -0.02444160       0.00509883       0.04210440
H       15.16200000       7.25163000       2.41376000      -0.00601766      -0.07741880       0.00671001
O       16.32670000       0.75275000      12.38780000       0.04476430      -0.00144662       0.01889890
H       15.56010000       1.13265000      10.84320000      -0.01184720       0.00624576      -0.04143440
H       15.11190000       0.91895000      13.63610000      -0.03652760       0.00028259       0.02859060
O       20.71471000      13.39150000      15.58635000      -0.01792960      -0.05724700       0.03993810
H       20.06249000      11.59710000      16.45715000       0.01526390       0.06941970      -0.04678950
H       20.62782000      13.26060000      13.76445000       0.00304222      -0.00643419       0.00652398
O       21.61015000      16.84095000      22.88911000      -0.05109280      -0.01913950       0.01622740
H       22.84065000      17.89625000      23.60208900       0.02964190       0.01645230       0.01473770
H       20.17165000      16.92915000      24.16207700       0.02088690      -0.00595110      -0.02477560
O       23.21860000       8.40803000      19.18220000       0.09029880      -0.05694680       0.03354700
H        0.41995000       8.82593000      18.34490000      -0.02799600       0.01022070       0.00614216
H       24.24370000       6.96401000      20.28790000      -0.05612380       0.05381600      -0.03851470
O       11.18465000      24.26415000       8.83548000      -0.06849430      -0.02130870       0.05125120
H       12.24445000      23.31115000       7.78699000       0.01142490      -0.01750180      -0.01144250
H        9.68775000      22.91755000       9.92752000       0.05164200       0.04674200      -0.03334660
O        7.67803000      21.71070000      11.67885000      -0.00779633       0.09898210       0.02024670
H        7.85703000      20.09080000      11.19805000       0.00962449      -0.07460910      -0.00255476
H        7.82084000      22.19210000      13.55705000       0.00772210      -0.02941220      -0.02986060
O        0.08035600       3.78995000       4.61018000       0.04497750      -0.02861760       0.02613800
H        1.50292000       2.63125000       4.18721000      -0.02533480       0.02199970       0.01193790
H       24.30998200       4.73935000       3.12635000      -0.00921490       0.02292570      -0.02358950
O       16.26524000      16.30306000       6.73730000       0.00393595       0.01094210       0.02832290
H       14.69808000      17.00595000       7.35417000      -0.02215810      -0.00282751      -0.01485700
H       17.28115000      17.10495000       8.05994000       0.01724070      -0.00647182      -0.01573610
O       18.64179000       8.70859000      16.86250000      -0.05125420       0.00823190      -0.05951030
H       20.08058000       8.60843000      17.76580000       0.07100680      -0.01376490       0.05539410
H       19.26906000       8.04004000      15.22510000      -0.01823980      -0.00836745       0.00887525
O       23.66520000       7.12365000       0.91331500      -0.06480130      -0.01317470      -0.04151130
H       22.70360000       5.73215000      24.11022300       0.04247200       0.03175930       0.03619550
H       22.26940000       8.40185000       1.02578000       0.03063290      -0.01830360       0.00030679
O       22.44800000       3.19234000      22.56965000      -0.05118380      -0.00768613       0.01016700
H       20.56750000       2.55307000      23.04475000       0.05710010       0.00835925      -0.02275750
H       22.91440000       3.32589000      20.75025000      -0.01885660      -0.00992210       0.01066220
O       18.33670000       1.05715000       0.55170000      -0.01246320      -0.01588850      -0.01566310
H       19.25480000       0.86205000       2.07270000       0.02467000       0.01212430       0.03092050
H       17.70320000      23.77720000       0.46450000      -0.00893228       0.00830773      -0.02399360
O        7.35395000      10.06220000      21.63310000      -0.01278780      -0.00677255       0.03060060
H        8.45525000       8.49289000      21.83470000      -0.02141470       0.03388630       0.00489200
H        6.16465000      10.58200000      23.17000000       0.04090010      -0.03449330      -0.03792080
