192
Lattice="22.67244 0.0 0.0 0.0 22.67244 0.0 0.0 0.0 22.67244" Properties=species:S:1:pos:R:3:force:R:3 TotEnergy=-1102.48898 cutoff=-1.0 nneightol=1.2 pbc="T T T"
O        7.03175000       3.65287000      22.13090000       0.03159000      -0.00348481      -0.01397870
H        6.54569000       1.93209000      21.79150000      -0.01725300      -0.01298810       0.01124310
H        5.60356000       4.67658000      22.38750000      -0.01661800       0.00714914       0.00407046
O       14.64030000       1.81107000       3.16635000      -0.03704970      -0.03401840       0.05380450
H       14.58000000       0.83449500       4.84913000       0.01388240       0.01562400      -0.04588130
H       16.17860000       1.56397000       2.32230000       0.03263640      -0.00230520      -0.00632106
O       18.85170000      18.90470000       2.41447000       0.07357870      -0.02893350      -0.04253420
H       19.33620000      18.57590000       0.60001500      -0.01246470       0.01110350       0.04618380
H       17.24080000      19.48070000       2.39109000      -0.06551100       0.03018160      -0.01065640
O        2.57245000       7.09039000       2.59179000       0.00197224      -0.02021630       0.01366380
H        3.66106000       6.55089000       3.97557000      -0.00404513       0.00914737      -0.01177510
H        1.84636000       8.57452000       3.27036000      -0.01183460       0.01498500       0.00955534
O        1.43214000       4.68366000      18.01250000       0.00737109       0.01287060       0.02801390
H        1.79756000       3.43190000      16.80000000       0.01472930      -0.01641990      -0.00058224
H        1.92702000       4.17108000      19.71430000      -0.00817970      -0.00833926      -0.01787060
O       21.89460000      12.76520000       4.34374000       0.00629051       0.00445335       0.00466401
H        0.74106000      13.68700000       3.78069000      -0.01326710      -0.01092560       0.00740623
H       20.81180000      12.45520000       2.90416000       0.01398750       0.00785194       0.00033785
O        2.32618000      14.01680000      10.11840000      -0.02651610      -0.01233470      -0.00160301
H        0.83097700      13.42450000      11.06890000       0.00982729       0.00397090      -0.00980731
H        2.92137000      15.48960000      10.93780000       0.00386258       0.01739140       0.01339800
O        5.90924000       8.18760000      14.28720000      -0.11564800      -0.01314430      -0.04089600
H        4.81612000       8.67742000      15.63120000      -0.00898306       0.00391508      -0.00105439
H        7.42734000       8.22106000      14.97210000       0.10603500      -0.00012406       0.04095020
O        4.07132000      14.50470000       0.18322600       0.00270668       0.01314280       0.00425644
H        4.55829000      12.72320000      22.59481000       0.00976209       0.02690590       0.00625484
H        5.19933000      15.90060000       0.71436400       0.00181715      -0.04068330       0.00223377
O       18.34780000      11.56620000       7.93151000      -0.05358440      -0.03584140       0.01389140
H       19.90640000      11.64350000       7.08340000       0.01882960      -0.00092183      -0.02670220
H       16.95860000      10.55930000       6.90950000       0.04372700       0.03667410       0.01761840
O       12.99200000      12.77280000      20.37720000      -0.01178370      -0.01499000      -0.02111360
H       13.55150000      11.99200000      18.71590000      -0.01532260       0.01907520       0.03168610
H       11.13740000      12.33010000      20.71920000       0.03649550       0.00013553      -0.01440110
O        8.65504000      11.14700000      21.90310000      -0.01771500      -0.02521130      -0.00538479
H        8.64446000      10.67280000       1.03966000       0.00559307       0.01714570      -0.00946969
H        7.32682000      10.07710000      21.10930000       0.00853568       0.01277350       0.01479250
O       12.34420000       5.89703000       2.70637000       0.01271450       0.02715180      -0.01492640
H       13.13940000       4.37588000       3.38636000       0.00823971       0.00248296      -0.00032889
H       13.67870000       6.50237000       1.53906000      -0.01943880      -0.01101870       0.01911210
O        4.52478000       8.62742000      21.34880000       0.04999880       0.01903020      -0.09561260
H        3.89498000       8.26532000      19.63250000      -0.00405992       0.00884071       0.02831020
H        3.45570000       8.17092000      22.62030000      -0.04493110      -0.02380090       0.04948560
O       10.30150000       8.18142000      15.72300000      -0.00467052       0.01682430      -0.01115800
H       11.06290000       7.37564000      17.13480000       0.01315620      -0.01535720       0.00366349
H       10.90780000       7.66404000      14.07560000       0.01419360      -0.01325560       0.00187105
O       10.86930000      16.47490000      11.23770000      -0.00182099       0.03860610      -0.05463250
H       11.43430000      14.90450000      11.78630000       0.00389324      -0.03401220       0.00754197
H       11.27860000      16.39350000       9.38747000      -0.00319511      -0.00191654       0.03687880
O        3.75084000       4.29063000      11.26410000       0.00311558       0.02882040       0.02417590
H        2.61582000       5.76958000      11.15450000       0.01469360      -0.01753200      -0.00329044
H        5.17490000       4.99299000      12.31810000      -0.02194940      -0.00790500      -0.01852180
O       11.54610000      17.66250000      16.21970000      -0.11516800       0.06290430       0.10454100
H       10.11750000      17.30590000      17.74930000       0.06443310      -0.00750389      -0.06616610
H       12.46680000      16.21510000      15.77670000       0.02664790      -0.03368790      -0.00489522
O       21.15660000       7.13189000      15.36320000      -0.07137920       0.07435180      -0.10636100
H       20.48650000       6.45455000      13.66840000       0.02237550       0.01820870       0.04455080
H       21.81350000       5.84007000      16.17720000       0.03760250      -0.08282410       0.06063600
O        4.46783000      21.38840000      21.76360000       0.01200050       0.00027917       0.00099878
H        3.58150000      16.11230000      18.40640000      -0.07641150       0.03942590       0.07250320
H        4.45418000      20.64880000       0.79006000       0.00220058       0.00569394      -0.02005940
O        9.37317000       3.90193000      10.46230000       0.01962900      -0.02996570       0.07862480
H        9.33466000       2.07171000      10.90200000       0.00490841       0.02613650      -0.01168680
H        8.40679000       3.99693000       9.03347000      -0.02179010       0.00075604      -0.03894480
O        2.93893000      18.20040000      12.98740000      -0.01442290      -0.04802310       0.00835774
H        3.14839000      19.92430000      12.60030000       0.01022490       0.02314660       0.00049567
H        2.76744000      18.21690000      14.79750000      -0.00310284       0.00187481      -0.01027670
O       13.11070000      12.40610000      15.32800000       0.00050645       0.01400760      -0.01638800
H       12.27560000      10.84380000      14.87030000      -0.00532385       0.00372523       0.00539276
H       14.21730000      12.80610000      13.91230000      -0.00394032      -0.00174089       0.00147294
O       20.09650000       2.34986000       1.67492000      -0.00941713      -0.00055095       0.03667370
H       21.17530000       1.45702000       0.35033100       0.00147279       0.00101554       0.01837600
H       20.46290000       1.63241000       3.40549000      -0.00187331       0.00744844      -0.03807710
O       10.76120000      21.14420000       1.27542000      -0.00779099       0.02266670       0.05751540
H       11.57210000       0.17086000       1.26342000      -0.01420010      -0.01884360       0.01144350
H       10.27340000      20.78220000       3.62881000       0.00686695       0.00472806      -0.06971550
O       16.39920000      14.76300000      12.26890000      -0.00981775       0.05641480      -0.10478500
H       16.03090000      15.78020000      10.05490000      -0.01615310      -0.02005180       0.08311130
H       17.69640000      14.31310000      11.08200000       0.02887060      -0.02953070       0.01765080
O        0.24940000       0.29166000      21.35790000       0.00895434      -0.01535310       0.01964520
H        2.29854000      22.18890000      21.44630000       0.00702747      -0.00369528       0.00276171
H       22.41721000       0.86516000      19.79610000      -0.01034440       0.00808083      -0.03940730
O        8.39943000       3.39883000       5.92190000       0.00698561       0.00013322      -0.04708900
H        9.12860000       3.21965000       4.22422000      -0.00658569      -0.00079776       0.01850750
H        7.90162000       5.16318000       5.85549000      -0.00224027       0.00041968       0.00390774
O       21.03410000      20.21260000      10.53550000       0.00583000      -0.02161660       0.01339950
H       22.35820000      18.86730000      10.85050000      -0.02739920       0.02976340      -0.00947518
H       19.53210000      19.29210000       9.97828000       0.01428260      -0.00408721      -0.00378385
O       19.49620000      17.17830000       6.83059000      -0.03729200       0.03817430      -0.01749110
H       18.68990000      17.98420000       5.13055000       0.04477680      -0.03941510       0.04829440
H       19.98290000      15.47940000       6.56046000       0.00124239      -0.00908708      -0.01464560
O       18.57340000      19.89720000      15.66260000      -0.01592420      -0.00663992       0.00042968
H       17.37540000      19.76460000      14.25780000       0.01470580       0.00093271       0.01568160
H       18.07030000      21.36790000      16.63770000       0.00510185      -0.00304273      -0.01031220
O       11.50010000       6.64851000      20.43430000      -0.04405000      -0.01998430       0.01991160
H       10.38710000       8.06916000      20.85130000       0.01515560      -0.00214854       0.00104513
H       10.76940000       5.28950000      21.55540000       0.01317620       0.02443980      -0.02006830
O       17.66690000      10.67730000      16.77020000       0.02113810      -0.00504314       0.00507481
H       18.69390000       9.17368000      16.29950000      -0.00660411       0.01853320      -0.00615740
H       17.51520000      11.77430000      15.30420000       0.00327445      -0.01258310       0.00690071
O       16.76070000       2.24662000      15.83430000       0.07100170      -0.01925700      -0.05883990
H       15.26440000       1.53166000      16.13310000      -0.07968970      -0.02623070       0.00181423
H       16.96320000       3.26533000      17.19290000       0.01373480       0.06202110       0.05963830
O       21.01920000      11.51090000      12.34510000      -0.02305640       0.00833775      -0.01987110
H       22.26710000      10.21660000      12.28530000       0.00110943      -0.01193910      -0.00142601
H       19.83420000      11.07740000      10.89790000       0.02030770       0.01023620       0.02227220
O        6.78158000       2.67558000      16.20470000      -0.00777033       0.02317940       0.07851180
H        8.35463000       2.73277000      15.38790000       0.02124590       0.01187100      -0.00710100
H        6.97565000       3.29097000      18.08660000      -0.00013342      -0.01721650      -0.05972150
O       14.15870000       2.19498000       9.23116000      -0.22193200       0.11956200      -0.15832600
H       13.08040000       0.80239100       8.87136000      -0.00631607      -0.00575733      -0.00530235
H       15.25770000       1.57282000      10.03990000       0.23320700      -0.12514300       0.16347100
O       11.97650000      15.06710000       2.13269000       0.08502710       0.07076050      -0.04981230
H       13.50350000      16.84480000       1.89623000      -0.07204920      -0.07975470       0.02240160
H       12.54570000      13.93620000       0.65541200      -0.00841563       0.02799250       0.03617740
O       13.27760000       6.97376000      11.35670000       0.01055390      -0.02035960       0.00038489
H       15.07970000       6.91355000      11.77840000      -0.02532960      -0.00598248      -0.00597327
H       12.69020000       5.25977000      10.72700000       0.01531100       0.02947490       0.00952994
O       21.99400000       7.08248000       9.82317000       0.00640642      -0.07547760       0.02190860
H       20.53610000       7.65747000       8.94194000      -0.00681868      -0.00510043      -0.01146180
H       21.64920000       5.08736000      10.17920000       0.00019903       0.07801670      -0.02099490
O        8.74194000      20.68360000      18.79660000      -0.01484510      -0.01646790      -0.09280800
H        6.88853000      20.52090000      18.35150000       0.03605040       0.01010960       0.02488560
H        9.01689000      20.77000000      20.50410000       0.00029282       0.00424420       0.07135680
O        4.12725000      14.88360000       5.46832000      -0.00327858       0.08620760      -0.06068540
H        3.25333000      14.58150000       6.95919000      -0.01843680      -0.00697802       0.03279700
H        3.60923000      17.07860000       4.97573000       0.02842200      -0.07102710       0.01948740
O        8.66474000      19.91600000       5.84085000       0.04602360       0.01927930       0.01079700
H       10.10910000      18.79340000       6.20227000       0.00258030      -0.01182700      -0.01332490
H        9.20036000      21.12470000       7.14372000      -0.01857580       0.00479976      -0.00210474
O       21.55720000      11.09690000      22.47150000       0.02751210       0.10213600      -0.08525420
H       21.04470000       9.75632000       0.62406000      -0.03913120      -0.11027800       0.06587470
H       20.37060000      11.13970000      21.08730000       0.00781582       0.00477758       0.00332429
O       20.98610000       1.05729000       6.95755000       0.00790206      -0.03912860       0.03875580
H       20.79790000      22.10039600       8.49238000       0.02663560       0.05300800      -0.05871970
H        0.11146000       1.62360000       6.79086000      -0.02373590      -0.01540490       0.00561615
O       14.22100000      19.48340000       6.59636000      -0.03563730       0.01889450      -0.00190358
H       11.13990000      20.00410000      17.04740000       0.00239831      -0.05072860      -0.02015780
H       15.63650000      18.43870000       6.77145000       0.01454460      -0.01369610       0.00334076
O       19.33220000       3.15424000      11.72670000       0.00478313      -0.00620254      -0.00658432
H       18.00880000       2.86384000      12.91710000      -0.01329920       0.00952218       0.02160300
H       20.03000000       1.49232000      11.71090000       0.01078490      -0.00690967      -0.00782231
O        4.26176000      22.46976500      13.62610000      -0.07510860       0.04184790      -0.05854310
H        5.18132000       0.66840300      14.81230000       0.03955590       0.02311160       0.05071810
H        3.20599000       1.41643000      13.05610000       0.03357510      -0.04554130      -0.00195080
O       20.69610000      15.12700000      18.11510000       0.03626600       0.11362000       0.02593170
H       19.62100000      16.53230000      17.67100000      -0.00893316       0.00086991      -0.00986956
H       19.93630000      13.71950000      17.66250000      -0.04940130      -0.10278400      -0.03364450
O       18.94710000       7.38950000       1.94373000       0.02395750      -0.02339000      -0.03470980
H       19.76240000       5.59867000       1.74277000      -0.02504300       0.02870720       0.00527493
H       18.71060000       7.56741000       3.69285000      -0.00427218      -0.00977796       0.02598340
O        6.21702000      11.04870000      10.42260000      -0.03546570       0.02988600      -0.00802733
H        4.91158000      12.37530000       9.84994000       0.03238750      -0.03380360       0.01457570
H        5.44341000      10.44660000      12.00890000       0.01935800      -0.00272700      -0.01766940
O        1.66458000      16.95330000      20.14450000       0.05697210      -0.00075832      -0.13620600
H        0.07050200      16.57160000      18.83980000       0.02875110      -0.02342850       0.04715540
H        2.52414000      15.83410000      21.53680000      -0.00865136      -0.02745870       0.00798185
O       17.77140000       5.12323000       6.28385000       0.03224500      -0.04117840      -0.00254272
H       18.77750000       3.38315000       6.07290000      -0.02808310       0.05531960       0.01819690
H       17.27000000       5.09276000       8.02164000      -0.00314419      -0.00619379      -0.00365118
O       16.07900000       5.95018000      19.15470000       0.02133200       0.08084360       0.03020460
H       14.33810000       6.34312000      19.99530000       0.04855190      -0.00071229      -0.02247410
H       17.63440000       8.62236000      19.56620000      -0.06088330      -0.08335530      -0.01231720
O        3.98800000      19.81210000       4.12371000       0.05994470       0.05835340      -0.00631558
H        2.63690000      21.01890000       3.79269000       0.00617873      -0.00601667       0.00789274
H        6.28780000      21.44530000       4.24189000      -0.08317120      -0.06777350       0.00352474
O        8.80749000      12.19050000       4.09465000       0.08597900      -0.03291110       0.01523680
H        7.42352000      13.15610000       3.99625000      -0.07709100       0.04837820       0.00508864
H       10.21050000      13.45660000       4.33725000      -0.01699220      -0.02623680      -0.01168650
O        6.14226000       8.35547000       6.12610000      -0.05296740      -0.07556770      -0.01962800
H        6.47917000       9.28914000       7.52779000       0.00456971       0.04004770       0.06975340
H        7.30137000       8.85070000       4.97586000       0.04622820       0.02824800      -0.04698370
O        2.31914000      10.53840000      16.79550000       0.00079414       0.00522961       0.00442579
H        1.80436000      12.20250000      17.27660000      -0.00556593      -0.00660654      -0.00092080
H        0.86093200       9.57882000      16.26400000      -0.00783209       0.00095872      -0.00091611
O       14.70200000      11.14000000       4.59440000       0.06522140      -0.02437900      -0.09005250
H       15.95660000      10.83640000       2.70647000      -0.05755920       0.01514720       0.08798460
H       13.61990000       9.70166000       4.37059000      -0.00820501      -0.00990716      -0.00066727
O       12.40980000       0.06876000      15.59970000       0.19438800      -0.05491310       0.00008413
H       11.02270000      22.59460000      16.39730000      -0.15874500       0.01025700       0.07851690
H       13.69850000      21.52090000      17.26410000      -0.04264940       0.04974970      -0.06168970
O       15.00890000      20.01400000      21.83960000      -0.02653800      -0.09179130      -0.01482600
H       13.41040000      20.62140000       0.12706000       0.01932910      -0.02608400      -0.01133110
H       14.72580000      17.76950000      21.63150000       0.00640072       0.10632900       0.00720243
O        8.71512000      21.19470000      11.18270000       0.00702654       0.04103930      -0.00786763
H        7.09295000      21.63270000      11.97730000       0.00964274      -0.03108510      -0.01084510
H        9.40332000      19.53540000      10.85660000      -0.01821030      -0.00828947       0.02483900
O       11.78630000      11.90070000       9.16992000       0.05053210       0.01706010      -0.01248430
H       10.48220000      10.77210000       8.79311000      -0.01799910      -0.01561460      -0.00467209
H       13.22170000      11.57050000       8.00258000      -0.03161510       0.00388202       0.02156570
O        3.39454000       1.97948000       6.24277000      -0.01024780      -0.04085900       0.02007970
H        3.88713000       1.29067000       7.89497000      -0.00245279       0.00767511      -0.02054950
H        3.81774000       3.66940000       6.42351000       0.00992121       0.03401900       0.00476216
