192
TotEnergy=-1103.43952000 cutoff=-1.00000000 nneightol=1.20000000 pbc="T T T" Lattice="24.39863000       0.00000000       0.00000000      -0.00000100      24.39863000       0.00000000      -0.00000100      -0.00000100      24.39863000" Properties=species:S:1:pos:R:3:force:R:3:Z:I:1
O              22.69630000     -3.83972000    -29.03630000      0.01128790      0.00451303      0.00197111       8
H              21.93380000     -2.95930000    -30.55200000      0.01435200     -0.03299940      0.01949560       1
H              23.73520000     -5.42957000    -29.24150000     -0.01850280      0.02074320     -0.01485880       1
O              45.92870000     45.22170000      0.56846700      0.00627167     -0.00640926     -0.00919409       8
H              46.69230000     46.65120000      1.37808000      0.00147935      0.00614865      0.00434317       1
H              46.67890000     45.15460000     -1.12880000     -0.01154500      0.00037704      0.00770058       1
O              11.03360000      1.65955000     14.29420000      0.01916490     -0.01629790      0.08043900       8
H              11.91160000      2.32783000     16.00170000     -0.02724920     -0.02105250     -0.05999020       1
H              10.36070000     -0.06539000     14.99630000      0.00790491      0.04349660     -0.02786220       1
O              -5.95059000    -12.05950000     -0.92106600     -0.00893341      0.00741716     -0.07712290       8
H              -5.77361000    -12.88370000     -2.81515000      0.00783696      0.03272150      0.06591550       1
H              -6.41724000    -10.20330000     -1.25010000      0.01524060     -0.03948080      0.00901136       1
O               6.49780000     30.05060000     18.79490000     -0.02938680     -0.08150020     -0.01326790       8
H               6.79164000     31.56600000     19.50440000      0.01771220      0.07443690      0.02077700       1
H               7.19111000     29.90380000     17.13330000      0.01296500      0.01343630     -0.01110940       1
O              -5.36361000     11.14060000     10.41110000      0.00078850     -0.03244030     -0.00425331       8
H              -6.47686000      9.63309000     10.94970000      0.03352730      0.02829750     -0.01386630       1
H              -3.78381000     10.57720000      9.56254000     -0.03285820     -0.00183767      0.01048460       1
O              44.99910000     25.57760000     12.48550000     -0.02521040     -0.00112187     -0.01152660       8
H              46.66930000     25.84010000     11.94560000      0.04191620      0.00238666     -0.00034180       1
H              44.09200000     25.88030000     10.92440000     -0.01172470     -0.00927914      0.00959866       1
O              -0.86301800    -28.71720000      8.31594000     -0.05527200      0.00597624     -0.06811300       8
H              -1.05261000    -30.09830000      6.86860000      0.00281294      0.04428680      0.04381480       1
H              -2.21995000    -27.28000000      7.64549000      0.05592190     -0.05346560      0.02297220       1
O              31.50040000    -34.03040000     20.21670000     -0.09944390      0.00867953     -0.01598420       8
H              32.56340000    -32.76880000     19.85960000      0.05731830      0.05816130     -0.00833461       1
H              32.30710000    -35.49650000     20.61270000      0.03957870     -0.06011870      0.02090930       1
O               9.92177000    -29.50030000    -26.61800000      0.01966330      0.01962440     -0.04119310       8
H              11.43550000    -28.53830000    -27.27970000     -0.02649940     -0.01793060      0.02765080       1
H               9.80780000    -29.33980000    -24.83370000      0.00486610     -0.00131368      0.01299070       1
O             -10.12000000      5.24536000      7.37003000      0.04623660     -0.07455950      0.05745140       8
H             -10.91210000      6.34446000      6.43013000     -0.05790230      0.10808700     -0.05279580       1
H             -10.65220000      3.89740000      6.24895000      0.00730381     -0.03366910      0.00242092       1
O             -11.79550000     26.56190000     52.39170000      0.05021550      0.00770390     -0.02206380       8
H             -13.51260000     27.19010000     52.10730000      0.00174576     -0.00254358     -0.01367360       1
H             -10.55030000     26.92630000     50.92930000     -0.04875160     -0.01003440      0.03317770       1
O              14.25230000    -28.99660000    -13.87220000      0.00312962     -0.05063480      0.01179820       8
H              14.54140000    -30.82580000    -14.56030000      0.00156303      0.05077410      0.01640730       1
H              14.16010000    -29.24980000    -12.00970000     -0.00099867      0.00644169     -0.02715980       1
O              27.63900000     15.02890000     34.86470000     -0.01821380     -0.00298151     -0.00119131       8
H              27.02500000     13.21340000     34.34950000     -0.00303350      0.04602000      0.01172850       1
H              26.34680000     16.31490000     35.46070000      0.02205160     -0.04658570     -0.01240840       1
O               0.29714800      0.82430900      2.02626000     -0.10570500      0.00193101     -0.06373400       8
H               1.47865000      0.87936700      3.17232000      0.08779500      0.00864396      0.09271000       1
H               1.06181000      0.35613900      0.50277500      0.01564430     -0.00725807     -0.03308800       1
O             -28.41580000     24.05870000     30.05130000     -0.06587820      0.04932200      0.01229960       8
H             -28.54040000     25.37210000     28.63770000      0.00579163     -0.03782240      0.03809840       1
H             -30.04280000     24.47780000     31.19250000      0.05488830     -0.01616080     -0.04180120       1
O             -33.47050000     10.06730000     26.42140000     -0.00005603     -0.01135460     -0.04661110       8
H             -34.51080000      8.92007000     25.38270000      0.00728351      0.01276330      0.02032430       1
H             -32.29760000     10.72300000     24.96390000     -0.01460030      0.00123494      0.03220230       1
O             -19.85740000     65.42080000    -19.01100000      0.01180450     -0.05252120     -0.04480730       8
H             -20.32420000     64.97130000    -17.29760000      0.00322243     -0.00732546     -0.00096993       1
H             -19.53920000     63.69860000    -20.02440000     -0.01513750      0.05800250      0.03725670       1
O              68.87290000     21.40090000     40.02190000      0.07368570     -0.01636140      0.01835410       8
H              69.05010000     22.75590000     38.92370000     -0.00109103      0.03741570     -0.03376480       1
H              67.23960000     21.08970000     40.32770000     -0.08310540     -0.01176140      0.01197860       1
O              56.65150000    -21.06170000      2.73292000      0.04320560      0.04796820      0.06696480       8
H              55.51770000    -22.13070000      3.47725000     -0.04219110     -0.03058470      0.04723280       1
H              56.34380000    -21.37550000      1.12035000     -0.00221907     -0.01199370     -0.11268000       1
O              32.34530000     18.34790000    -13.36060000     -0.05320920     -0.06806820     -0.01697570       8
H              33.89520000     17.41590000    -13.52840000      0.01523990      0.00845279      0.00347151       1
H              31.13110000     16.74190000    -13.67660000      0.03148560      0.06383770      0.01315600       1
O             -15.82570000      6.34613000     62.80190000      0.00298057     -0.08524160     -0.04033150       8
H             -14.66940000      7.70561000     62.80220000      0.01656600      0.01551770      0.00062979       1
H             -14.96590000      4.60659000     61.95610000     -0.02414290      0.06454110      0.04448730       1
O               9.06109000      2.53867000     -2.27293000      0.01387580     -0.02747330      0.02947990       8
H              10.85150000      2.68316000     -2.46596000     -0.00061397      0.00292160     -0.00216376       1
H               8.28601000      3.66196000     -3.39249000     -0.01362020      0.02151130     -0.02842880       1
O              44.68310000      4.20708000     25.45670000     -0.06364600      0.02085480     -0.03389600       8
H              44.30120000      5.11155000     26.94880000     -0.02814240      0.02714540      0.01977770       1
H              46.18340000      3.64377000     25.97170000      0.09195490     -0.04831740      0.01166510       1
O              -3.13908000     61.06440000     28.21850000      0.08235970      0.05429200      0.06551810       8
H              -4.10591000     60.93970000     26.81290000     -0.04087180      0.01512560     -0.06621240       1
H              -1.95161000     62.86360000     28.30150000     -0.05279690     -0.05564180     -0.01561610       1
O              11.81790000     38.65180000     11.23500000     -0.04078260     -0.05431230     -0.03642110       8
H              10.67290000     37.58800000     10.02160000      0.01384150      0.02734580      0.03652440       1
H              13.32500000     38.31080000     10.19860000      0.01097010      0.02051160      0.00696469       1
O             -18.70040000     20.37930000     19.42130000      0.06033380      0.02100020      0.02635910       8
H             -19.73730000     18.91340000     19.23340000     -0.00124473     -0.01326540      0.00803213       1
H             -17.06240000     20.19880000     20.66160000     -0.05373580     -0.00942746     -0.02732230       1
O              32.75430000     33.19820000     51.41370000      0.09011960      0.03471860      0.00647419       8
H              32.36870000     31.57390000     51.71830000     -0.01379820     -0.08262300      0.01318390       1
H              31.27570000     33.94490000     51.04810000     -0.07437060      0.04836560     -0.01807050       1
O              13.43800000     32.46340000     20.13380000      0.00359061     -0.00287339     -0.04636330       8
H              13.10340000     33.27020000     18.42890000      0.00498433     -0.01162110      0.03827170       1
H              13.93880000     30.71960000     19.60680000     -0.00997224      0.01822500      0.00939214       1
O               1.93178000    -24.94620000     21.40590000     -0.03591000     -0.06289320     -0.04009430       8
H               0.79940000    -26.50200000     20.58640000      0.00189654      0.05493300      0.03488500       1
H               3.31295000    -25.76210000     20.53800000      0.03020930      0.01019670      0.01011260       1
O              -1.03740000     17.09010000      3.74788000      0.02842370     -0.02241600      0.02952540       8
H               0.75478400     17.55490000      3.77029000     -0.01077380     -0.00641042     -0.00517075       1
H              -1.95153000     18.27900000      2.77400000     -0.00897867      0.02066670     -0.02256970       1
O               1.32253000      1.55378000     12.27290000      0.00405594     -0.00230182     -0.12932600       8
H               2.19193000      0.14192700     11.34890000     -0.00969240      0.01831630      0.02953720       1
H               1.25523000      1.53230000     13.93690000      0.00776287     -0.01375720      0.10848200       1
O             -34.34370000     51.72800000    -30.25320000      0.04645290      0.00072039      0.02667530       8
H             -32.92980000     51.99810000    -31.49580000     -0.01764940     -0.00431087      0.02697290       1
H             -33.49880000     51.34800000    -28.37140000     -0.03364840      0.01701050     -0.06348850       1
O               3.95431000     50.88920000    -18.50750000      0.02804020     -0.00923656      0.11691800       8
H               4.51952000     52.31850000    -17.29010000     -0.01990350     -0.02410820     -0.04349070       1
H               4.08403000     49.54610000    -16.84110000     -0.01057850      0.02921200     -0.07458530       1
O             -34.43170000     39.45390000      3.75458000     -0.04960200      0.03177470     -0.02986320       8
H             -34.79790000     37.84180000      2.90897000      0.00306858      0.00626436      0.00880241       1
H             -36.10750000     40.66380000      3.50251000      0.04368310     -0.04710860      0.01180660       1
O              20.44810000     37.39740000     15.03990000      0.03676660      0.00298478     -0.06195330       8
H              21.83460000     38.64560000     14.82150000     -0.01765650     -0.00277549      0.01841780       1
H              20.59440000     36.88680000     13.13810000     -0.02885120     -0.00025477      0.04868360       1
O             -15.95960000    -13.31600000      7.97184000     -0.01131500      0.00488359      0.02236770       8
H             -15.56330000    -14.16340000      6.40665000     -0.01374130     -0.00151640     -0.00024350       1
H             -17.66130000    -13.70790000      8.63999000      0.02628120     -0.00127569     -0.02199650       1
O             -47.15860000      3.31325000     17.74690000      0.02394620      0.05503810     -0.03381070       8
H             -47.12450000      1.95925000     18.85740000      0.00579340     -0.03416730      0.03354750       1
H             -45.51750000      4.26609000     17.95340000     -0.02835770     -0.02049320      0.00224613       1
O             -22.55040000    -14.15160000     33.34570000     -0.01575000     -0.02896420     -0.03356430       8
H             -21.84690000    -15.50300000     34.37850000      0.00041338     -0.00246436     -0.00161073       1
H             -23.23880000    -15.12520000     31.76530000      0.01779380      0.03475400      0.03336940       1
O              15.59640000     15.12660000     32.82530000     -0.00996944     -0.00288471     -0.03209550       8
H              16.87190000     13.88740000     32.90340000      0.02605550     -0.01313600      0.01681550       1
H              15.17710000     14.94800000     30.94320000     -0.00519450      0.01384750      0.01642570       1
O             -20.44550000     -1.89606000     33.67590000      0.05976810     -0.03109430      0.02091780       8
H             -18.70670000     -2.76089000     34.19740000     -0.06062300      0.02479310     -0.01977750       1
H             -21.56170000     -3.22885000     33.06630000     -0.00062256      0.00603179      0.00105072       1
O              40.16290000      7.03482000     36.91340000     -0.08813990     -0.01181860     -0.14465300       8
H              39.49760000      5.45346000     35.38170000      0.03052310      0.08068050      0.06926350       1
H              41.00760000      6.32931000     38.19350000      0.05182360     -0.05009060      0.06616680       1
O              -8.86225000    -33.57120000     -6.93074000     -0.03116210     -0.05392660     -0.06015680       8
H              -7.25776000    -33.90310000     -7.84184000     -0.01200380      0.00513274      0.01319420       1
H             -10.05070000    -34.83960000     -8.01391000      0.04132390      0.04495070      0.04719630       1
O              53.11900000    -18.55350000    -13.61710000      0.01565820     -0.00547073      0.07656580       8
H              54.62320000    -18.05420000    -12.44160000     -0.02611430     -0.00789177     -0.03427250       1
H              52.14610000    -19.52400000    -12.24160000      0.01456540      0.01614800     -0.04728400       1
O              16.11420000      0.59036100      9.78406000      0.01421920     -0.03246070     -0.00790363       8
H              15.32480000      2.06603000     10.41480000     -0.01532080     -0.00859042      0.00872522       1
H              15.47420000     -1.05998000     10.46320000      0.00170175      0.03138000     -0.00907658       1
O             -33.91450000     -2.90695000     46.01720000      0.00202024     -0.00860803     -0.02325590       8
H             -33.98650000     -3.25081000     44.21230000     -0.00724710      0.01240910     -0.00610200       1
H             -32.76780000     -4.26212000     46.47390000      0.00218104     -0.00246584      0.02001240       1
O               4.17810000    -10.96020000     -8.13523000      0.02572250     -0.00041460      0.10892000       8
H               5.78036000    -10.48220000     -7.03350000     -0.04186950     -0.00878056     -0.03412530       1
H               4.27369000    -10.78110000     -9.81430000      0.01604180      0.01284290     -0.07857840       1
O              22.68800000     17.59990000     13.37350000      0.00315799      0.00496154     -0.00637142       8
H              21.75520000     18.77010000     14.55100000      0.01500410     -0.01035000     -0.03792420       1
H              22.81890000     18.20290000     11.58380000     -0.01481540      0.00589274      0.03554160       1
O               8.71256000     21.59070000     -8.96219000     -0.04198800     -0.04036520      0.02840550       8
H               7.84779000     20.89370000     -7.29982000      0.01200030      0.02705890     -0.03837660       1
H               7.50103000     20.86420000    -10.21110000      0.02965290      0.01121960      0.01252410       1
O              24.71140000     57.88640000     28.22960000     -0.06461650     -0.04968200     -0.05409320       8
H              23.03730000     59.12280000     27.64860000      0.04241580     -0.01492910      0.03800940       1
H              23.95350000     56.15580000     27.45560000      0.04054140      0.06532630      0.03418830       1
O              -5.51976000      6.98629000      5.37974000      0.05280860      0.06603660     -0.04368370       8
H              -6.04706000      8.75074000      4.89577000      0.02354150     -0.03015360     -0.00107436       1
H              -6.99943000      6.61823000      6.12217000     -0.06963860     -0.04052210      0.04238130       1
O              13.79940000    -28.62220000     16.30120000      0.01439090     -0.06377640      0.02392460       8
H              12.00430000    -28.66190000     16.08000000     -0.01546910      0.01598290     -0.00771864       1
H              14.04620000    -30.50750000     16.87760000      0.00957186      0.04417220     -0.01743400       1
O               1.65937000     16.87210000     43.76220000     -0.00934377      0.05633140      0.02595820       8
H               2.38631000     15.80700000     44.95430000      0.00929605     -0.01705150      0.04483280       1
H               1.84960000     15.73090000     42.49580000     -0.00037848     -0.03796900     -0.07149310       1
O              41.82750000     41.79850000     -0.37421200     -0.05377210     -0.03021510      0.00805853       8
H              42.83520000     42.81570000      0.66729200      0.02056490      0.01696300      0.01459370       1
H              40.49660000     41.05580000      0.82316200      0.02915430      0.01880360     -0.01951570       1
O              21.27690000     10.59880000    -29.27790000     -0.01634780     -0.00475881     -0.06394440       8
H              21.38490000      8.80446000    -28.84270000     -0.00337605      0.00431392     -0.01029530       1
H              20.97570000     10.69730000    -31.31240000      0.01040310      0.00605527      0.07024450       1
O             -14.39040000     42.08840000      3.24538000     -0.05677650     -0.00128654      0.01835320       8
H             -16.10560000     42.05040000      4.19211000      0.04586000     -0.00567007     -0.02449530       1
H             -13.60280000     43.64670000      3.78019000      0.00961049      0.00995593      0.00403623       1
O              13.36320000    -27.76920000     29.18620000     -0.01332340     -0.01068280      0.02008080       8
H              12.74670000    -27.88090000     31.03120000      0.02376480      0.02831530     -0.05258990       1
H              13.40560000    -26.16320000     28.21660000     -0.01010650     -0.01070910      0.04006840       1
O               4.31574000     36.27290000      1.40481000     -0.00275561     -0.02666140      0.08632130       8
H               2.90518000     35.34360000      2.40159000      0.02070200      0.02003300     -0.04397390       1
H               4.03708000     36.77790000     -0.24055800     -0.02572800      0.00171779     -0.03940180       1
O             -12.45340000    -13.88500000     15.15800000      0.03877650      0.01573630     -0.07963410       8
H             -11.17810000    -15.07590000     14.23450000     -0.03005210      0.03093740      0.02443740       1
H             -12.54190000    -12.37330000     13.70950000     -0.00090782     -0.04469150      0.04395910       1
O              -5.51966000      4.57747000     15.60290000     -0.01516540      0.06724110      0.07082860       8
H              -4.11226000      5.17248000     16.68370000     -0.02431810     -0.00820828     -0.00697085       1
H              -4.80794000      3.42687000     14.57260000      0.03367760     -0.05899270     -0.05410010       1
O              26.25600000    -12.74940000     -3.94227000     -0.02485320     -0.01477350      0.04762600       8
H              24.57120000    -13.54040000     -4.13603000      0.01503110      0.01860580     -0.00197567       1
H              27.01270000    -12.71710000     -5.51899000      0.01529330     -0.00210122     -0.03918400       1
O              21.81590000      5.65043000     44.35700000     -0.12465500      0.01578680      0.04207420       8
H              21.56240000      5.23956000     46.14340000     -0.02554460      0.00336439     -0.00813039       1
H              23.41480000      5.32236000     44.40690000      0.14843700     -0.02845110     -0.02699150       1
O              15.31040000     26.18220000     47.62620000     -0.11487900     -0.04400340     -0.03118690       8
H              16.80350000     26.82490000     47.93560000      0.11467500      0.03064260      0.02201650       1
H              15.19520000     24.49620000     46.73290000      0.01638910      0.00453979      0.02628850       1
O             -15.60770000     10.43570000     21.26900000      0.03909610     -0.04521830      0.06248500       8
H             -13.73480000     10.02480000     21.50660000     -0.03541210      0.00803133     -0.02322870       1
H             -16.06470000      9.65890000     22.97040000     -0.00285665      0.02295660     -0.03449870       1
