192
Lattice="22.79936 0.0 0.0 0.0 22.79936 0.0 0.0 0.0 22.79936" Properties=species:S:1:pos:R:3:force:R:3 TotEnergy=-1103.62133 cutoff=-1.0 nneightol=1.2 pbc="T T T"
O       12.54330000      20.14730000      15.61480000       0.01053890      -0.00263349       0.01018600
H       11.05650000      19.96600000      14.64750000      -0.00189103       0.00064511      -0.01286790
H       12.13230000      19.62790000      17.31300000      -0.00152756       0.00099117      -0.00512042
O       21.74730000      22.10520000      12.17070000      -0.00094166       0.00688033      -0.00124686
H       22.72840000      22.38130000      13.66550000       0.00096837      -0.00274379       0.00157442
H       20.02350000      21.88460000      12.74430000       0.00064047      -0.00442263       0.00093545
O        1.58950000      20.24740000      16.88460000      -0.00686993       0.00747285       0.00141294
H        2.98630000      19.90390000      18.09370000      -0.00626032       0.00620844      -0.00327036
H        0.05876200      19.81420000      17.77820000      -0.00461346      -0.00280755       0.00320886
O        0.99369400       9.94111000       6.30605000       0.00435294       0.00826396       0.00473646
H        0.61355600      10.84470000       7.85108000       0.00150436       0.00074050       0.00562873
H        2.08934000       8.46194000       6.79655000      -0.00135466       0.00801299       0.00669068
O        6.66477000       2.96116000       7.19078000       0.00401542       0.00397970      -0.00411553
H        8.40507000       2.98872000       7.75387000       0.00085298      -0.00702234      -0.00040091
H        5.74127000       2.08731000       8.55199000      -0.00315138       0.00473261       0.00160543
O       14.56750000      10.63090000      16.61820000       0.00255654       0.00370659      -0.00097851
H       13.15150000      11.76700000      17.01350000       0.00537668      -0.00059845      -0.00171180
H       15.84500000      10.90400000      17.88730000       0.00221457       0.00320292      -0.00043861
O        5.83614000       1.68774000      21.01130000      -0.00587525      -0.00901034       0.03118090
H        6.97143000       2.21241000      22.41680000      -0.01493000      -0.00174492      -0.01198620
H        6.35920000       2.52461000      19.55030000       0.00854715       0.01716610      -0.02857970
O        8.24617000      19.26000000       1.63258000      -0.00116599       0.00396941       0.00206742
H        9.99034000      19.77130000       1.98821000       0.00147179       0.00421415       0.00010906
H        8.45534000      17.50290000       1.29581000      -0.00390352       0.00090023      -0.00038552
O       14.43990000      13.62040000       7.70144000       0.01766280       0.01183370       0.01283030
H       13.28350000      13.36970000       9.14992000       0.00477884       0.00116023      -0.01000070
H       13.51540000      13.46300000       6.21809000      -0.02255850      -0.00720349      -0.02339580
O       11.84330000       2.86602000      13.54460000      -0.02059660       0.00806080      -0.01394200
H       13.36640000       2.81787000      14.47600000       0.01461630      -0.00495230       0.01528440
H       11.33510000       4.64021000      13.59370000       0.00679642      -0.00659771      -0.00742047
O       13.62510000       6.25870000       7.82994000       0.03005840       0.01259680       0.02170590
H       15.91020000       7.69285000       9.15488000      -0.01291900      -0.01470620      -0.01051200
H       12.64690000       6.22240000       9.34954000      -0.00576309      -0.00422504      -0.00095796
O       16.36760000       4.19953000       1.74802000      -0.00190456      -0.00046198       0.00540528
H       17.44170000       4.63123000       3.16674000       0.00002119       0.00639078       0.00019254
H       15.10100000       3.11912000       2.49458000      -0.00273141       0.00372680       0.00351745
O        4.89930000      19.68030000      20.18330000      -0.00211103      -0.01630660      -0.00165209
H        5.63474000      18.07680000      20.58910000       0.00274478       0.00470423      -0.00073188
H        6.14514000      20.97330000      20.14850000       0.01130280       0.01080030       0.00425245
O        9.20592000      18.20240000       9.58394000       0.00362556       0.00131389       0.00069935
H       10.64150000      17.11140000       9.43791000      -0.00087530      -0.00164167       0.00104592
H        8.00363000      17.72400000       8.29708000      -0.00226789      -0.00258481       0.00178647
O       19.42750000       1.84041000      21.96860000       0.00477040      -0.00363688       0.00004199
H       18.50210000       0.61929800      20.99370000       0.00043067      -0.00237474       0.00050348
H       18.02710000       2.82414000       0.09924000       0.00932556      -0.00220718      -0.00121041
O        2.99902000      19.20860000       2.16562000      -0.00481797       0.00248266      -0.00342349
H        3.20803000      17.71680000       1.05990000      -0.00836100      -0.00271223       0.00349398
H        4.11083000      20.36170000       1.31006000       0.00852411      -0.00574240       0.00146041
O       19.19440000       6.32480000      18.15240000      -0.00060425       0.00322245       0.00275159
H       18.82370000       7.77466000      19.22190000      -0.00252060      -0.00203792       0.00291867
H       20.97690000       6.08541000      18.36160000       0.00262197       0.00270365      -0.00485272
O       17.84990000      13.19420000      11.08230000      -0.00158541      -0.00184959       0.00382011
H       16.24810000      13.52800000      11.89540000       0.00987715      -0.00506733       0.01038360
H       17.70140000      14.40620000       9.73464000       0.00423787      -0.00871552      -0.00777058
O       10.86870000       6.03577000       3.59585000       0.01806200       0.03799730       0.00051282
H       11.65700000       6.01225000       5.28282000       0.00451936      -0.00387521       0.00180770
H        9.82557000       4.69383000       3.15387000      -0.01526700      -0.02636860       0.00088289
O        6.79751000      20.59170000      13.55670000      -0.00023874      -0.00408595       0.00575371
H        7.94945000      19.56360000      14.49290000      -0.00657495      -0.00393516      -0.00047450
H        5.67228000      19.39960000      12.79260000       0.00050259      -0.00301368      -0.00100375
O        7.65199000      10.88960000       8.99266000      -0.00349192      -0.00020076       0.00251809
H        7.53579000       9.53100000       7.79719000       0.00443266       0.00090073       0.00186418
H        6.38345000      12.06060000       8.46877000      -0.00259645       0.00224722      -0.00253558
O       22.06290000       3.15106000       7.49276000       0.01159340       0.00351329      -0.00324406
H       21.70810000       2.29667000       9.05248000      -0.00754326       0.00755633      -0.00182915
H        2.85814000       1.23246000       1.82872000       0.00898877       0.01288670      -0.00877712
O        3.24267000      15.03650000      21.92060000       0.00008273       0.00469794      -0.00014567
H        3.60210000      13.52680000       0.10784000      -0.00095772       0.00224661       0.00271472
H        1.55244000      14.61240000      21.38610000       0.00092364       0.00388011      -0.00518684
O        0.35514000      12.22930000      10.86870000       0.00139913      -0.00016372       0.00391854
H        1.81614000      12.97430000      11.63860000      -0.00201283       0.00139233      -0.00008041
H       21.72660000      13.04380000      11.65090000      -0.00074062      -0.00004661      -0.00183981
O       16.08800000       9.46062000       4.11446000       0.00664416       0.00246437      -0.01469190
H       16.71560000      11.00780000       4.79312000      -0.00123443       0.00274038       0.00314824
H       17.60970000       8.39728000       4.10304000      -0.00934036      -0.00006331       0.00861685
O       10.58170000       0.42719000       8.89604000      -0.00556329       0.00681663       0.00678554
H        9.28822000      22.06667300       9.42750000       0.00738368      -0.00924492       0.00127055
H       11.45400000       0.97293600      10.40680000      -0.00114895       0.00207795       0.00255633
O       17.66930000       8.04217000      10.35700000      -0.00432177      -0.00158722      -0.02084950
H       18.99280000       7.22396000       9.27495000      -0.00850436       0.01674770      -0.00300632
H       18.05340000       9.89270000      10.60020000      -0.00655162      -0.00666886      -0.00843370
O        6.92787000       2.31283000      15.35700000       0.00442010      -0.00596709       0.00481296
H        5.90034000       0.99268300      14.63640000      -0.00225495       0.00373305      -0.00018666
H        8.59191000       1.84661000      14.77320000       0.00474207       0.00496046      -0.00002678
O       11.60450000      17.18940000      19.78200000      -0.00271227       0.01181230      -0.00095175
H       11.07660000      16.01210000      21.14120000       0.00336514      -0.00093690       0.00691620
H       12.39630000      18.57940000      20.63420000       0.00440679       0.00524462      -0.00036670
O        0.76000800       4.24036000      13.68420000       0.00641791       0.00017520       0.00177181
H       21.77360000       4.56943000      13.51650000      -0.00146449      -0.00507848      -0.00234173
H        0.85992600       3.36976000      15.28570000       0.00369072       0.00838919       0.00189012
O        1.10578000      18.85920000       9.51440000       0.00175491      -0.00012896      -0.02733580
H        1.61207000      18.46880000      11.22700000      -0.00271824      -0.01347920       0.01141500
H        0.02328100      20.30600000       9.63966000      -0.00226807       0.00743130       0.00709040
O        3.53186000       8.99350000      15.91670000       0.00346589       0.00412872      -0.00662376
H        2.94633000       8.45867000      14.30300000      -0.00319789      -0.00895173      -0.00379882
H        4.83262000       7.84848000      16.53160000       0.00606870       0.00054747      -0.00200195
O       11.80030000      10.07560000       0.83616500       0.00361724      -0.00398061      -0.02181780
H       11.38110000       8.83137000       2.12836000      -0.00069513      -0.01365250       0.00527016
H       13.58380000      10.32540000       0.92565800       0.01315970      -0.00715904       0.01376880
O       20.24590000      18.07600000      19.31860000      -0.00202290       0.00189064      -0.00038646
H       19.25350000      18.95860000      20.54360000      -0.00368114      -0.00267297       0.00253618
H       19.03580000      17.30960000      18.17540000       0.00463017       0.00024504      -0.00233393
O        7.23443000       6.33127000      18.01290000      -0.00215226      -0.00097142       0.00531990
H        7.28155000       4.81123000      16.96390000      -0.00181614       0.00527438      -0.00227167
H        8.96635000       6.73803000      18.48710000      -0.00337692      -0.00046239      -0.00162992
O       19.83900000      13.38840000       2.21488000      -0.00035120      -0.00531490       0.00314444
H       20.43890000      14.76540000       3.25669000       0.00316665       0.00243004      -0.00155376
H       20.80170000      11.94950000       2.73009000       0.00309806       0.00006041       0.00232797
O        6.83523000      13.21120000       3.61620000       0.00258459       0.00402776       0.00651440
H        5.18317000      12.39760000       3.34590000       0.00552903       0.00267171      -0.00490075
H        6.46409000      14.53750000       4.78248000      -0.00040028       0.00363749       0.00757744
O        7.53402000       2.07398000       2.54958000      -0.00847016      -0.00057367      -0.00067134
H        6.70184000       2.48736000       4.16971000       0.00893946      -0.00174878       0.00498562
H        7.83761000       0.29862300       2.54624000       0.00466467      -0.00988049       0.00598303
O       10.65010000      14.47850000       0.68678300      -0.00316937       0.02446560      -0.00076167
H        9.07223000      14.46010000       1.59961000      -0.00493991      -0.01264400       0.00658813
H       11.07310000      12.65980000       0.69275600      -0.00086963      -0.00725059       0.00225091
O        2.47422000      16.98170000      13.65630000       0.00050253      -0.00679678      -0.00511499
H        1.95538000      18.09290000      15.10430000       0.00411899       0.00144357      -0.00533413
H        3.99379000      16.14680000      14.19230000       0.00105005      -0.00467190       0.00612458
O        1.09037000      10.59100000      19.58050000      -0.01319550       0.03253070      -0.01320310
H        1.15529000       9.42774000      20.88860000       0.00609865      -0.02213400       0.02480000
H        2.15609000       9.96708000      18.18430000      -0.00555634      -0.00836445      -0.00428795
O       18.37040000       3.95286000      13.88620000      -0.00009997       0.00099653      -0.00709531
H       17.61120000       4.41409000      12.31300000      -0.00339552       0.00115721      -0.00014269
H       18.00450000       5.29382000      15.08600000       0.00321127      -0.00321334      -0.00039834
O       16.70060000      17.62830000       3.01245000      -0.00440786       0.00473388       0.00663152
H       16.29010000      16.20070000       4.04977000       0.00148497      -0.00329920      -0.00150190
H       18.03350000      18.45440000       3.93340000       0.00189745      -0.00113326       0.00009397
O       11.65860000       8.09522000      12.88330000      -0.00282029      -0.00682582       0.00448218
H       10.82040000       8.81981000      14.31520000      -0.00294434       0.00273774      -0.00234267
H       13.38290000       8.62411000      13.05250000      -0.00132947       0.00327070       0.00181489
O       10.44850000      13.66180000      16.89560000       0.00226551      -0.00520990      -0.00546036
H        8.99592000      13.22360000      17.89460000       0.00139447      -0.00472252      -0.00897325
H       10.96370000      15.31930000      17.53080000       0.00307022      -0.00359508       0.00060252
O       18.81900000      10.58630000      20.81970000      -0.01409080       0.00431955       0.00080704
H       20.37690000      11.08120000      20.03130000       0.01008110       0.00345612      -0.00206990
H       18.74650000      11.54350000      22.38990000      -0.00206084      -0.00147519      -0.00675895
O       14.35090000      21.76390000      20.48570000       0.00652509      -0.00003650       0.00157685
H       13.81670000       0.63764000      19.94540000       0.00720045      -0.00559292      -0.00442569
H       14.21630000      21.69960000      22.31560000      -0.00609135       0.00005143      -0.00021376
O       21.88610000      17.40500000       4.92942000      -0.00518747       0.00234449      -0.00129291
H        0.33914000      18.19060000       3.86500000      -0.00066996      -0.00255454       0.00169227
H       22.57150000      17.55200000       6.61812000      -0.00180395      -0.00173049       0.00374902
O        3.51156000       6.39874000       8.31151000      -0.00331009      -0.00068828       0.00341740
H        2.24932000       5.05684000       8.43544000      -0.00607582       0.00293017      -0.00308194
H        5.05300000       5.44065000       7.95059000      -0.00433808       0.00606717      -0.00315575
O       12.82240000      20.86690000       2.40376000      -0.00084285       0.00318703       0.00381176
H       13.85300000      19.48760000       3.03963000       0.00746685      -0.00078342      -0.00384020
H       13.15850000      22.24530000       3.58757000       0.00347209      -0.00075756      -0.00171318
O        4.93156000      17.13430000       7.13628000       0.00011810      -0.00168390      -0.00513587
H        4.47460000      17.94660000       5.58607000       0.00406832       0.00240765      -0.01095880
H        3.61380000      17.83060000       8.24201000       0.00201104      -0.00426753      -0.00079979
O       11.38960000      13.39150000      11.39110000      -0.00080318       0.00126134      -0.00444916
H       11.30450000      13.43110000      13.19220000      -0.00772649      -0.00128174       0.00649463
H        9.98062000      12.41370000      10.69080000       0.00467144      -0.00223589       0.00732476
O       14.80320000       3.28728000      17.84670000       0.00458682      -0.00380342       0.00608050
H       13.75740000       4.60959000      18.57960000      -0.00183262      -0.00132774       0.00337313
H       16.49340000       3.75739000      18.35510000      -0.00122861       0.00101703      -0.00119370
O       14.15600000       1.42053000       5.81214000      -0.00157467       0.00518484      -0.00591461
H       12.43090000       1.15349000       6.43157000       0.01274890      -0.00174766       0.00831628
H       14.54100000       3.09465000       6.52003000      -0.00549362       0.00316607       0.00207519
O       12.05270000       7.17411000      19.13650000       0.00144626      -0.00009128      -0.00115540
H       13.08430000       7.84797000      17.77440000      -0.00195522       0.00977789       0.00185458
H       12.25500000       8.39761000      20.48810000      -0.00550915      -0.00516678       0.00748182
O        3.60204000       6.31154000       1.45444000      -0.00231504      -0.00008508       0.00340538
H        3.75772000       5.06278000       0.14275100      -0.00055157       0.00524741      -0.00192806
H        2.23737000       5.90783000       2.57647000      -0.00101100      -0.00470131      -0.00035613
O        5.10264000      13.91180000      16.83100000      -0.00054363       0.00815014       0.00198461
H        5.38782000      14.63570000      18.46520000      -0.00274950       0.00205404       0.00293523
H        3.36985000      13.39970000      17.01340000       0.00363683      -0.00669485      -0.00252459
O       17.41090000      16.77620000      14.73480000       0.00002134       0.00224983       0.00960218
H       15.96290000      17.64850000      15.40350000      -0.00554585      -0.00542911      -0.00459358
H       18.26640000      18.08830000      13.80260000      -0.00192199      -0.00468587       0.00101011
O        4.05298000       1.33886000      10.89680000      -0.00301250      -0.00279542       0.00269591
H        3.72513000      22.41881900      10.49350000      -0.01009380      -0.00517061       0.00009992
H        2.50248000       2.11324000      11.54790000       0.00542524       0.00253692      -0.00315244
O       20.16160000       6.83395000       5.55346000      -0.03190520      -0.03317900       0.00079552
H       21.26560000       8.19619000       5.32360000       0.01883740       0.01436990       0.00482187
H       21.11830000       5.00740000       6.77886000       0.00127175      -0.01355500      -0.00003824
O        2.61679000      11.34240000       2.26247000      -0.00319526      -0.00375928      -0.00584969
H        3.20527000       9.63046000       2.03749000       0.00098362      -0.00201270      -0.00763453
H        1.71734000      11.23990000       3.92148000       0.00668312      -0.00358022       0.00023394
O        0.81793500       3.47633000      19.17900000       0.00349030      -0.00031995       0.00359134
H        1.99192000       2.36978000      20.02470000       0.00048301       0.00127663      -0.00825960
H       21.95579300       3.05287000      19.80410000      -0.00314125      -0.00775939       0.00596689
O        1.07263000       1.05696000       2.10035000      -0.02431710      -0.00594092       0.01273610
H        0.50956900      22.12072100       1.87678000       0.00645710      -0.00840432       0.00174382
H       22.57198900       2.20008000       1.42748000       0.00294044       0.00177462      -0.00701665
O       17.16410000      21.77420000      13.87190000      -0.00354743      -0.00734510       0.00502112
H       17.58270000       0.71054000      14.21410000      -0.00802026       0.01244750       0.00618051
H       16.15290000      21.13630000      15.26400000      -0.00067836       0.01503850      -0.01118680
