192
TotEnergy=-1103.44421000 cutoff=-1.00000000 nneightol=1.20000000 pbc="T T T" Lattice="24.57317000       0.00000000       0.00000000      -0.00000100      24.57317000       0.00000000      -0.00000100      -0.00000100      24.57317000" Properties=species:S:1:pos:R:3:force:R:3:Z:I:1
O              22.46050000     -4.85556000    -29.33640000     -0.02486930      0.00597000     -0.05009150       8
H              21.28860000     -4.11271000    -30.78530000      0.03440170     -0.03450010      0.04374190       1
H              22.98370000     -6.60147000    -29.78430000     -0.00989092      0.02917750     -0.00079177       1
O              47.68420000     45.02240000      0.05753600      0.02689990     -0.00034673      0.09274060       8
H              48.42510000     46.63260000      0.49616400     -0.00775278     -0.00133250      0.00191866       1
H              47.12360000     45.07180000     -1.54458000     -0.02056230     -0.00103753     -0.08185010       1
O              10.64390000      6.04221000     15.18790000      0.05320260     -0.06301310     -0.01069130       8
H              12.47140000      6.19791000     15.91830000     -0.04392740     -0.01083240     -0.01179980       1
H              10.57250000      4.20203000     14.30150000      0.00216018      0.06461730      0.02071650       1
O              -6.22039000     -9.74630000     -3.75002000     -0.02733190      0.03279280      0.05248900       8
H              -4.63198000     -9.47026000     -4.50069000      0.02807240     -0.00528769     -0.00739165       1
H              -6.24253000     -8.51974000     -2.24476000     -0.00007494     -0.02531980     -0.03734300       1
O               5.25012000     32.96400000     19.87270000      0.01615060      0.03001580     -0.02449630       8
H               6.10840000     34.40780000     20.74730000     -0.01235880     -0.02724910     -0.00555772       1
H               5.71707000     33.25880000     18.04670000     -0.00602408     -0.00718476      0.02453280       1
O              -5.26969000      9.01679000      6.79403000      0.00836264      0.00460995      0.04114710       8
H              -5.82108000      8.21283000      8.38633000      0.00718693     -0.00148285     -0.02096070       1
H              -6.25686000      8.35973000      5.44538000     -0.00906018      0.00416923     -0.01315570       1
O              46.05290000     26.70910000     11.71810000     -0.00064583      0.02413790      0.00801574       8
H              47.82620000     26.92180000     11.92160000      0.01501060      0.00260825      0.01044200       1
H              45.82900000     25.07480000     11.07770000     -0.01591360     -0.02696660     -0.00516398       1
O              -1.90492000    -31.61030000      7.63013000     -0.05156970     -0.00440879      0.02486310       8
H              -1.37369000    -32.29320000      6.11368000      0.04290160     -0.00569830     -0.04345750       1
H              -3.49652000    -32.63540000      7.50096000      0.00775038      0.01501710      0.02425760       1
O              30.96320000    -33.13040000     19.21840000     -0.00708198     -0.03387190     -0.00572470       8
H              29.54880000    -33.76560000     18.15420000      0.01355040      0.01584220      0.00658049       1
H              31.51780000    -34.59180000     20.21600000     -0.00718583      0.01997500     -0.00788695       1
O               9.18768000    -27.99460000    -24.84800000     -0.02046680      0.01213790     -0.00547487       8
H              10.60890000    -27.70900000    -25.91810000      0.01376370     -0.00017506      0.00382666       1
H               9.69157000    -29.09420000    -23.52340000      0.00394326     -0.01208590      0.01237750       1
O              -9.72115000      2.04151000      8.15573000     -0.03234120      0.00317368     -0.07889910       8
H             -10.11930000      2.06217000      6.00841000      0.01182890      0.00529431      0.08468620       1
H             -11.34960000      2.24498000      9.05308000      0.01688090     -0.00734702     -0.01376550       1
O             -10.76500000     27.28980000     51.75750000      0.05901650     -0.01737960     -0.05373180       8
H             -12.43080000     27.89370000     51.58560000     -0.02523520      0.00108935     -0.00344309       1
H              -9.98846000     26.87410000     49.93020000     -0.03232530      0.01913330      0.06784200       1
O              16.30930000    -31.13290000    -14.27560000      0.00953787     -0.02578550      0.00571095       8
H              16.86120000    -32.75470000    -15.13990000     -0.00524889      0.02823750      0.01126270       1
H              16.35500000    -31.53320000    -12.47250000     -0.00242535     -0.00057169     -0.01225740       1
O              29.83120000     14.20740000     36.86290000     -0.04334210     -0.00929779     -0.04823430       8
H              28.10710000     14.97480000     37.24880000      0.04206470     -0.02027690      0.00484092       1
H              29.37600000     13.13760000     35.29660000      0.00637272      0.02486920      0.04753060       1
O              -0.51551800      0.50379600      2.54802000     -0.00076310      0.01552220     -0.03137620       8
H              -0.85272800      0.14647700      4.25764000      0.00416518     -0.01624530      0.02336690       1
H               1.27584000      0.67487800      2.28043000      0.00179931      0.00407823      0.00333165       1
O             -30.77210000     23.14230000     34.13920000      0.15100900     -0.16608000      0.13846100       8
H             -31.75780000     24.03600000     33.27550000     -0.14056100      0.08917610     -0.09879790       1
H             -31.05900000     21.22930000     34.70870000     -0.01180770      0.06914960     -0.03735800       1
O             -34.17570000     11.98570000     23.82690000     -0.04761820     -0.03647860      0.00716018       8
H             -35.14360000     11.09860000     22.47860000      0.00041167      0.01414690      0.01845330       1
H             -32.87090000     12.50980000     22.82100000      0.05265040      0.03161090     -0.03524710       1
O             -19.09890000     64.10940000    -21.18390000     -0.02775770      0.10520900     -0.05596220       8
H             -18.79940000     63.00900000    -19.97280000      0.01591960     -0.07901070      0.08802980       1
H             -18.79280000     63.22310000    -22.65550000      0.01140800     -0.02133690     -0.03812690       1
O              68.28830000     20.58230000     40.41660000      0.10726400      0.11744200     -0.01629340       8
H              67.35460000     22.05930000     40.01860000     -0.00900927      0.00774896     -0.00056608       1
H              67.28120000     19.32550000     40.64540000     -0.10117000     -0.11738400      0.01844160       1
O              57.72450000    -21.43390000      3.68952000     -0.03172320     -0.03441650     -0.05162170       8
H              57.11540000    -21.39750000      5.43259000     -0.00841899     -0.01325520     -0.00908235       1
H              56.63550000    -22.72270000      2.45133000      0.03181500      0.05119510      0.05920410       1
O              30.96830000     18.99720000    -14.39840000     -0.05252630      0.16858900      0.00561565       8
H              32.46170000     19.14340000    -15.21440000      0.06979700      0.04327430     -0.04162010       1
H              31.15360000     17.42660000    -14.32400000     -0.01411670     -0.21002600      0.03758000       1
O             -17.53960000      9.04902000     63.56840000      0.03031350      0.03749150     -0.02241180       8
H             -17.68390000     10.75540000     62.46180000      0.01561610     -0.06305490      0.04678670       1
H             -15.67870000      8.13683000     63.79100000     -0.05468950      0.02960920     -0.01473470       1
O               5.08801000      0.08399300      0.42608700     -0.05824640      0.13617500     -0.06505960       8
H               5.39729000      0.99282000     -1.36582000     -0.01570460     -0.03402780      0.07105970       1
H               6.05741000     -1.24727000      0.54012000      0.07566160     -0.09948760      0.00210152       1
O              44.60370000      3.93621000     26.28110000      0.03877370     -0.00991887      0.02203660       8
H              44.15660000      5.57592000     27.19700000      0.02480390     -0.04116460     -0.02291360       1
H              46.28890000      2.91067000     26.83920000     -0.05566890      0.04414470     -0.01081570       1
O              -0.59512400     60.74310000     30.27840000      0.09770960      0.02332580     -0.02772490       8
H              -2.14873000     60.21090000     30.90440000     -0.04569470      0.01187450      0.00050555       1
H               0.18990600     62.38980000     29.55940000     -0.05593290     -0.03890470      0.02335360       1
O              10.65650000     37.50360000     10.51740000     -0.00947283      0.02479490      0.02202820       8
H               9.68985000     37.81420000      9.00537000      0.00808534     -0.01650550     -0.00253018       1
H              12.02050000     36.36980000     10.33940000      0.00818245     -0.00780640     -0.01509210       1
O             -17.93550000     21.13810000     19.87520000     -0.00456413      0.02433250      0.02126230       8
H             -18.13890000     19.39770000     19.29590000      0.00577364     -0.00018197      0.02750090       1
H             -17.64610000     21.38570000     21.78710000     -0.00184282     -0.02971460     -0.05084760       1
O              32.46900000     33.16360000     51.71830000     -0.06661990     -0.05047100     -0.00796060       8
H              32.75690000     31.22540000     51.79370000     -0.00838684      0.04591800      0.00254814       1
H              30.42390000     33.33230000     51.29360000      0.07789760     -0.00186423      0.00744845       1
O              12.22870000     35.85670000     19.26000000     -0.00638239     -0.00902601     -0.04551660       8
H              11.89350000     36.85610000     17.62960000      0.00482010     -0.00730291      0.03915060       1
H              12.57310000     34.17280000     18.54740000     -0.00064927      0.01596060      0.01607440       1
O               2.40324000    -25.30430000     18.71490000      0.04357870      0.03306140     -0.02214530       8
H               0.94596900    -26.09580000     19.15570000     -0.05248370     -0.03934250      0.01561120       1
H               3.82111000    -26.43550000     19.03850000      0.00540226     -0.00536460      0.00380560       1
O               0.20762400     16.08580000      2.91304000     -0.02099700      0.02337860     -0.00840930       8
H               1.84349000     16.02400000      2.23877000      0.03499460     -0.01438470      0.00204950       1
H              -0.23362900     17.73050000      2.17727000     -0.01556470     -0.00740136      0.00361726       1
O               1.80409000      1.73811000     13.71580000     -0.00063625     -0.03232940      0.01247130       8
H               2.05867000      0.50571800     12.30440000      0.00778017      0.00806711      0.01731940       1
H               1.90349000      0.66628000     15.31150000      0.00065132      0.02572500     -0.03146240       1
O             -34.19710000     55.52010000    -31.12580000      0.07539360      0.00890813     -0.05835230       8
H             -32.30380000     54.96020000    -31.67730000     -0.05387310      0.03427620     -0.00230194       1
H             -34.20130000     54.33560000    -29.88100000     -0.01796250     -0.04151040      0.05963160       1
O               6.39874000     51.48280000    -15.83730000     -0.01102730      0.02752130      0.00049893       8
H               5.36631000     52.97190000    -15.10230000      0.02630950     -0.02988140     -0.01074640       1
H               5.32778000     49.96920000    -15.82000000     -0.00060617      0.00845844      0.00234177       1
O             -34.61780000     39.75770000      3.81270000      0.00028881     -0.00952027     -0.03240500       8
H             -34.57510000     38.62470000      2.25145000     -0.01391110      0.02926870      0.03773350       1
H             -36.25190000     40.73910000      3.96107000      0.01767210     -0.02182300     -0.01015590       1
O              19.73020000     36.06360000     14.97150000      0.00466555     -0.06244290     -0.00631717       8
H              18.03730000     36.16530000     14.33090000     -0.01276970      0.01160770      0.00310898       1
H              19.86590000     34.13900000     14.95020000      0.00549286      0.04356590      0.00410789       1
O             -17.59110000    -12.65860000      6.81280000      0.03798330     -0.02386030     -0.03602210       8
H             -17.25230000    -14.24850000      5.83190000      0.00504616      0.02781880      0.00498988       1
H             -18.76540000    -13.25580000      7.97196000     -0.03760980     -0.01256770      0.03021050       1
O             -46.62610000      3.39220000     21.52490000      0.02610770      0.04354930     -0.00763513       8
H             -46.73440000      1.68171000     20.77150000      0.01261550      0.02629800     -0.01564910       1
H             -45.54430000      4.80452000     20.64420000     -0.03088750     -0.05658210      0.02041530       1
O             -21.89910000    -13.97400000     34.01490000     -0.04167610     -0.02210000     -0.04196130       8
H             -21.96420000    -15.84440000     34.17940000      0.00985282      0.02709220      0.00761674       1
H             -23.29330000    -13.65170000     32.57410000      0.03593390     -0.00144201      0.03246860       1
O              18.47830000     14.37130000     31.77780000      0.01468500      0.14742400     -0.01353050       8
H              18.45440000     12.78280000     32.17490000     -0.00524812     -0.13544300      0.01904800       1
H              17.47580000     14.79940000     30.33470000     -0.01626080     -0.01183720     -0.00754580       1
O             -21.31340000     -1.35029000     34.27850000     -0.08921060      0.00067219     -0.04159760       8
H             -20.55740000     -2.92321000     34.56670000      0.01453260     -0.02866600      0.00689464       1
H             -23.15470000     -1.89935000     33.27420000      0.05959080      0.02647790      0.03093340       1
O              42.62550000      5.64173000     35.28190000     -0.00297066      0.01035520      0.00517915       8
H              41.50510000      4.37922000     34.68580000     -0.02903390     -0.00514647     -0.01819560       1
H              43.97560000      4.47839000     35.61690000      0.02139810      0.00458431      0.00542911       1
O              -8.42916000    -32.73510000     -8.39329000     -0.04015920      0.04502650     -0.08668960       8
H              -7.43453000    -33.29540000     -7.15757000      0.03816890     -0.03907280      0.07569330       1
H             -10.21120000    -32.88740000     -8.06784000     -0.00089544     -0.00762223      0.00817339       1
O              53.56800000    -18.55000000    -13.24940000     -0.11002300     -0.09139890     -0.04968410       8
H              54.47910000    -17.86090000    -12.03040000      0.06916260      0.05903370      0.07959900       1
H              52.43320000    -19.80350000    -12.23820000      0.02925480      0.03087120     -0.02613350       1
O              10.43140000      1.46300000     11.73700000      0.01156030     -0.00176936      0.02230280       8
H               9.94647000      0.08943400     12.87890000     -0.00032845      0.00598819     -0.00894945       1
H               8.90224000      1.95129000     10.86060000     -0.01150910     -0.00121640     -0.00902373       1
O             -34.83450000     -2.75711000     47.41180000     -0.01818680      0.01821050     -0.01449780       8
H             -34.82930000     -3.19293000     45.65760000     -0.00280232      0.00598255     -0.00977351       1
H             -33.65460000     -3.89388000     48.07020000      0.02332600     -0.02253950      0.02480000       1
O              11.12530000     -9.59095000     -8.71139000     -0.01699740      0.01372080      0.04891580       8
H               9.48154000     -8.88525000     -8.09896000      0.02470750     -0.01250820     -0.01789090       1
H              11.21750000     -9.65822000    -10.47570000     -0.01254470     -0.00296069     -0.03354070       1
O              23.40350000     19.69090000     12.91810000      0.00043115      0.08166620      0.12633800       8
H              21.96380000     20.17870000     14.28600000      0.04395560     -0.02678040     -0.06317870       1
H              22.82510000     18.74150000     11.66680000     -0.04118550     -0.05638640     -0.06737560       1
O               8.30014000     21.76530000    -10.20340000     -0.01412290     -0.00555679     -0.00612778       8
H               7.03575000     21.50400000     -8.82263000      0.02193850      0.00383285     -0.03688950       1
H               7.74350000     21.13610000    -11.92490000     -0.00158084      0.00269344      0.04809730       1
O              23.25520000     47.23650000     31.72940000     -0.00837395     -0.02608800      0.01799300       8
H              21.96600000     48.30390000     32.48570000      0.00132624     -0.01143260     -0.00322665       1
H              22.66270000     45.42000000     32.13900000      0.01214270      0.02957330     -0.01545610       1
O              -7.35987000      8.64012000      2.18632000     -0.04003470     -0.00123264     -0.03695810       8
H              -8.01359000     10.03740000      0.78305400      0.00980295     -0.04735960      0.04816200       1
H              -8.63290000      7.22368000      2.17372000      0.02188100      0.03273090     -0.00559274       1
O              14.03050000    -25.68830000     17.99300000      0.10921900      0.02061570      0.06038700       8
H              12.78250000    -26.28160000     17.11290000     -0.10474900     -0.04166980     -0.07213990       1
H              13.76760000    -23.98940000     18.41300000     -0.00849056      0.01965480     -0.00044224       1
O               2.27720000     16.28010000     40.48700000     -0.06022470     -0.05290760      0.03059540       8
H               0.55735700     14.98430000     41.16160000      0.05231270      0.05539380     -0.02981760       1
H               1.59062000     17.75470000     39.66290000     -0.01034250     -0.00327664      0.00257994       1
O              42.39220000     43.09220000      0.52599500      0.01649440      0.03891120     -0.11686900       8
H              43.78410000     43.95070000      1.11135000      0.04450850      0.02400600      0.01356730       1
H              41.70960000     42.28580000      1.78064000     -0.06014850     -0.06654140      0.10313300       1
O              22.57800000     13.80820000    -31.09570000      0.01651560     -0.02735830      0.01950890       8
H              23.48600000     12.51450000    -30.00710000     -0.01563730      0.01708580     -0.01000410       1
H              21.21570000     12.70510000    -31.86300000      0.01643750      0.01844660     -0.00874526       1
O             -14.57560000     42.16750000      4.12216000     -0.03611550      0.00597805      0.06150680       8
H             -16.15950000     41.08920000      4.50066000      0.03404190      0.02247160     -0.02621720       1
H             -14.45460000     43.17340000      5.79301000      0.00797965     -0.01874380     -0.04343120       1
O              11.63130000    -28.82210000     33.15730000     -0.06230590      0.00797399     -0.01717100       8
H              13.03560000    -29.75380000     33.62910000      0.04536580     -0.00963763      0.01206850       1
H              11.86610000    -27.08330000     32.74720000      0.01522860      0.00072045      0.00512177       1
O               3.43143000     35.04030000      0.83706900     -0.01855000      0.03670050     -0.04817710       8
H               1.94544000     34.92500000      1.85855000     -0.00911017      0.00055222      0.00017425       1
H               2.88754000     36.08480000     -0.76158800      0.01655690     -0.04309340      0.05640350       1
O              -9.36222000    -14.58640000     13.10120000      0.06738220     -0.00857821     -0.04039590       8
H             -10.86770000    -15.19510000     13.69760000     -0.04097870     -0.02280070      0.01656900       1
H              -8.29326000    -16.06610000     12.48190000     -0.03083300      0.02473300      0.01310230       1
O              -4.79954000      5.71626000     15.83570000     -0.04085120     -0.04039080     -0.06786470       8
H              -3.52389000      5.62559000     16.93870000      0.06311580      0.00849945      0.07354100       1
H              -4.33716000      4.12275000     14.88940000     -0.02103860      0.03106240      0.00375025       1
O              24.44670000    -14.70640000     -3.60588000      0.05024850      0.01578640     -0.02186730       8
H              23.63820000    -16.27980000     -3.66822000     -0.04187990     -0.02445880      0.01415190       1
H              26.07040000    -15.38970000     -4.24964000     -0.00280766      0.02207920      0.00827146       1
O              22.22030000      5.33848000     46.16870000     -0.18428300      0.04171160      0.03208110       8
H              21.41980000      4.57412000     47.75060000      0.01684920      0.02468580     -0.02629820       1
H              23.71100000      4.77138000     46.02380000      0.16483400     -0.07166770     -0.00775037       1
O              16.26050000     26.99110000     46.45280000      0.00806542      0.00240270      0.00930028       8
H              17.80960000     26.79440000     47.40760000     -0.00136048      0.01297050     -0.00223346       1
H              15.71780000     25.28140000     46.36060000     -0.00931341     -0.01806680     -0.00005712       1
O             -16.66190000     11.83170000     23.27390000      0.03602710      0.01741750     -0.04099040       8
H             -15.14060000     12.16080000     22.20690000     -0.02277310      0.00162757      0.01136210       1
H             -16.02270000     10.37070000     24.12560000     -0.00932545     -0.01261700      0.02219230       1
