192
TotEnergy=-1103.46729000 cutoff=-1.00000000 nneightol=1.20000000 pbc="T T T" Lattice="24.45736000       0.00000000       0.00000000      -0.00000100      24.45736000       0.00000000      -0.00000100      -0.00000100      24.45736000" Properties=species:S:1:pos:R:3:force:R:3:Z:I:1
O              24.98410000     -2.36064000    -36.68530000     -0.04805510     -0.02566520      0.05775300       8
H              23.12990000     -2.99211000    -36.95420000      0.05260970      0.02486940      0.00623999       1
H              25.17370000     -2.66377000    -34.69410000     -0.00330304      0.01233280     -0.06686740       1
O              51.37840000     49.58940000      1.36481000      0.07089790     -0.01338040     -0.03123390       8
H              53.12420000     49.99170000      0.42791100     -0.04904540      0.00679312      0.02231790       1
H              51.69220000     47.75470000      1.47161000     -0.02128460      0.01312350      0.00334431       1
O              13.60420000     -0.17505700     16.66870000      0.05184040     -0.11456900     -0.02585600       8
H              14.08510000      1.24334000     17.47650000      0.01280700      0.07457890      0.04626310       1
H              15.23540000     -1.38194000     17.07560000     -0.06012110      0.03683890     -0.01716200       1
O              -3.09686000     -8.50798000     -2.59301000     -0.02031360     -0.04613710     -0.00143834       8
H              -1.63119000     -9.48615000     -2.00658000     -0.00543085      0.02427430     -0.00504101       1
H              -3.23406000     -6.73399000     -2.66829000      0.02408780      0.01953300      0.00499626       1
O               5.93302000     34.64730000     19.68100000     -0.00111146     -0.07745470     -0.08708600       8
H               5.90874000     32.73340000     18.47010000     -0.00052096      0.09074830      0.06375210       1
H               5.57326000     34.15910000     21.37650000      0.00398999     -0.01473450      0.01841240       1
O              -8.39332000     11.48010000      6.39471000     -0.00490631     -0.01146530     -0.06170570       8
H              -8.97722000     13.20460000      6.83148000      0.00092905     -0.01281260     -0.01987320       1
H              -8.52467000     11.12340000      4.35753000      0.00140101      0.02016420      0.07690640       1
O              44.53490000     29.69360000     11.93800000     -0.06286170      0.08841630      0.05209650       8
H              45.76290000     29.07610000     11.04060000      0.11772000     -0.02491320     -0.07725420       1
H              43.80490000     28.17630000     12.26520000     -0.05230080     -0.05862170      0.02980340       1
O               1.49640000    -36.49510000      6.08913000     -0.05364600      0.08987550      0.08215830       8
H               2.43977000    -37.66200000      5.34622000      0.05846530     -0.08365420     -0.02395340       1
H               1.98532000    -36.10900000      7.93940000     -0.00555496     -0.01891790     -0.04548840       1
O              32.83560000    -34.61510000     17.51070000      0.03932980     -0.02896300     -0.04510830       8
H              32.15240000    -35.88690000     18.58100000     -0.01546890     -0.01091740      0.01617250       1
H              33.63280000    -35.81140000     16.14440000     -0.02571750      0.04299960      0.03061610       1
O              10.52550000    -29.24970000    -24.89960000     -0.06022650     -0.03166720      0.00865788       8
H              11.86580000    -29.81020000    -23.85290000      0.03531980     -0.00208725      0.01028800       1
H               9.24577000    -30.56270000    -24.17750000      0.02216650      0.03663880     -0.01944550       1
O             -11.78610000      5.23331000      7.86490000      0.01754230      0.03715160      0.08489480       8
H             -10.41100000      6.34162000      8.80935000     -0.02825040     -0.02519020     -0.03562490       1
H             -12.63480000      4.75264000      9.62512000      0.00477268     -0.00337088     -0.04772330       1
O              -9.64864000     29.26870000     49.24470000     -0.13027800      0.03441360      0.06404570       8
H             -10.70830000     28.69920000     50.93860000      0.04488100      0.02096320     -0.07867240       1
H              -8.17015000     28.46980000     49.36580000      0.08703550     -0.05554260      0.01272620       1
O               9.64893000    -31.05690000    -16.87970000      0.01018740     -0.00943795     -0.04532500       8
H               8.91435000    -31.91640000    -18.44780000      0.01120260      0.01777520      0.02385650       1
H               8.63892000    -31.48090000    -15.49070000     -0.01898450     -0.00561894      0.02270580       1
O              26.66410000     13.42720000     35.94610000     -0.05119810      0.01543180      0.00004575       8
H              25.19310000     12.86920000     36.93050000     -0.00294118      0.01922810     -0.01205530       1
H              27.78930000     12.29510000     36.61550000      0.05094710     -0.03552160      0.00689133       1
O               2.95463000      3.01894000      6.08108000      0.04334390     -0.00212249      0.04900140       8
H               4.53247000      2.29583000      7.15683000     -0.05707360      0.00481587     -0.04151670       1
H               2.67556000      2.24309000      4.45764000      0.01145060     -0.01647500     -0.00851134       1
O             -34.04760000     24.81830000     32.31010000      0.00802382     -0.01944840      0.00912480       8
H             -32.27180000     24.87610000     31.74570000     -0.00956089      0.00250516     -0.00797959       1
H             -34.89520000     26.35230000     31.89380000      0.00497394      0.02153750     -0.00159036       1
O             -32.53480000     14.66860000     22.92880000     -0.02919100      0.00031970     -0.03601070       8
H             -33.38480000     14.97020000     21.26050000     -0.00402525      0.00394720      0.03246310       1
H             -30.84010000     14.96120000     22.40720000      0.03596090      0.00031033      0.00421161       1
O             -21.08090000     63.68560000    -22.35470000      0.03909030      0.06481710      0.04128640       8
H             -21.48440000     62.97900000    -20.73890000     -0.01681110     -0.00495700      0.00940147       1
H             -21.68220000     62.73140000    -23.63390000     -0.03200150     -0.04840000     -0.05503510       1
O              68.69170000     20.94990000     36.68380000     -0.00541891     -0.00928903      0.00026540       8
H              67.26400000     22.14210000     36.90020000      0.02557370     -0.01280420      0.01340730       1
H              69.23760000     19.97840000     38.17810000     -0.01411040      0.01450680      0.00078698       1
O              59.07900000    -12.87440000      1.57765000     -0.07659750     -0.01347530      0.01722980       8
H              58.24810000    -14.45360000      0.97025700      0.01035480      0.01916500     -0.00195901       1
H              60.75550000    -12.79360000      1.23985000      0.06537200     -0.01042740     -0.01748070       1
O              29.64130000     17.76390000    -12.36290000      0.00089094     -0.00765454     -0.01131240       8
H              29.68600000     18.50000000    -10.71600000      0.00602183      0.00769946      0.00527783       1
H              28.38380000     16.44520000    -12.25300000      0.00087291      0.00187240     -0.00572105       1
O             -15.32530000      5.48590000     65.29920000      0.12418100      0.05842960     -0.01616550       8
H             -13.88690000      5.24056000     66.52860000     -0.02360800      0.00019153     -0.02125250       1
H             -16.57350000      4.61297000     65.96860000     -0.09544000     -0.06099500      0.04426960       1
O              10.65600000      0.47577500      1.94708000     -0.02197280     -0.07167720      0.03362710       8
H              10.07290000     -0.42750900      3.91457000      0.02514260      0.02807330     -0.06748180       1
H              10.91060000     -1.12743000      0.87533600     -0.00284850      0.03618450      0.03196230       1
O              44.13050000      1.06655000     30.56270000      0.00406155      0.04831870      0.01384880       8
H              44.68170000      2.86360000     31.11500000     -0.00080947     -0.04999810     -0.01741920       1
H              45.52390000     -0.13892800     30.63130000      0.00278086      0.00625808     -0.00013810       1
O              -3.99062000     62.32340000     32.58080000     -0.10539600      0.01072390      0.02648840       8
H              -5.33612000     61.08350000     31.92170000     -0.00362551      0.04010050      0.01562410       1
H              -2.82202000     61.33790000     31.92880000      0.11061800     -0.04651810     -0.03845570       1
O               3.32688000     30.73920000     14.05470000      0.00441434      0.01846000     -0.08426180       8
H               4.69324000     31.88700000     12.84830000     -0.05379130     -0.03977520      0.03514880       1
H               2.06869000     29.76120000     12.78000000      0.04721730      0.03325320      0.03776370       1
O             -11.68980000     16.84030000     19.70200000      0.00787265     -0.02967330     -0.02944810       8
H             -13.03340000     15.65980000     19.05850000      0.00789981      0.03497780      0.01842580       1
H             -12.19990000     18.13000000     20.85900000     -0.01859490     -0.00677451      0.00519599       1
O              24.93850000     36.62140000     47.48820000     -0.04947920      0.01377110      0.08174990       8
H              23.62380000     35.50710000     48.48220000      0.04063060      0.01711170     -0.04002090       1
H              25.60210000     35.88580000     46.07160000      0.00781810     -0.03471980     -0.04197220       1
O               6.98415000     27.01680000     23.44350000      0.02681070     -0.02474450      0.13271800       8
H               7.39025000     26.77350000     21.85390000      0.01841870     -0.01719590     -0.11399000       1
H               8.59040000     25.92730000     24.37970000     -0.04832380      0.04320430     -0.00754564       1
O               1.46635000    -27.92160000     17.67500000      0.04887140     -0.01244130     -0.02863080       8
H               0.90730000    -27.90390000     19.35530000     -0.01628840      0.00628058      0.02634430       1
H               3.32717000    -28.43300000     17.71140000     -0.03289470      0.00462169     -0.00501098       1
O               0.97054400     19.68230000      1.52484000      0.01903430     -0.01275590     -0.02268880       8
H               1.97916000     18.13230000      1.31406000     -0.01240620      0.00997581      0.00364051       1
H               0.56635000     19.76020000      3.27127000     -0.00855992      0.00577571      0.01422110       1
O               0.57615700      3.02292000     10.81460000     -0.02177510      0.03359830      0.04152300       8
H               1.03759000      2.87023000      9.16551000      0.02388490      0.00857454     -0.06471550       1
H               0.41976600      1.31972000     11.20390000     -0.00345627     -0.04656350      0.02982750       1
O             -34.91060000     53.22980000    -29.45970000     -0.01497560      0.06552960     -0.12021300       8
H             -34.43000000     55.05540000    -30.36020000     -0.01349140     -0.06432490      0.03924900       1
H             -34.25450000     53.31840000    -27.89470000      0.02287270      0.00430608      0.07785080       1
O               9.14731000     57.90400000    -18.42380000      0.08042770     -0.02902050      0.00320490       8
H              10.89290000     56.51510000    -17.80550000     -0.06343450      0.04497290     -0.02504860       1
H               9.79747000     59.08270000    -19.83220000     -0.01042490     -0.02841300      0.03577490       1
O             -40.83620000     40.63620000      2.92843000      0.02495400     -0.01251490      0.00370066       8
H             -39.92510000     38.95210000      2.68844000     -0.03298210      0.02796580     -0.00303174       1
H             -42.68700000     40.46410000      2.79854000      0.01410450     -0.01575380     -0.00848394       1
O              14.96080000     33.75030000     17.85330000     -0.05241090     -0.03551430      0.08566050       8
H              16.19030000     33.95150000     16.75160000      0.09023360      0.01313830     -0.07254260       1
H              13.57210000     34.61400000     17.26260000     -0.03344420      0.02268090     -0.01203670       1
O             -18.30430000    -14.79490000     11.08210000      0.06204140     -0.02914940     -0.05614890       8
H             -17.12480000    -15.50980000      9.48324000     -0.05375980      0.03337760      0.05629390       1
H             -16.91470000    -14.13560000     12.16690000     -0.01801650     -0.00925984     -0.00869321       1
O             -44.42350000      3.33568000     17.58610000      0.07299100     -0.11080900      0.14266000       8
H             -44.38660000      1.63576000     16.92700000      0.00280249     -0.00236417      0.01481570       1
H             -45.03200000      4.07903000     16.31020000     -0.06980660      0.10467200     -0.14525700       1
O             -19.97400000    -16.65250000     29.07020000     -0.02233950     -0.01547260     -0.00163906       8
H             -18.24070000    -16.36600000     29.46800000      0.02253830      0.00890198      0.00668195       1
H             -20.22540000    -18.39070000     29.68360000     -0.00906470      0.01289880     -0.00702222       1
O              14.78050000     18.39410000     26.21730000      0.03772800     -0.05846990     -0.01171750       8
H              14.67240000     17.61510000     27.87880000     -0.00347929      0.01444120      0.01066000       1
H              15.83550000     16.87250000     25.45530000     -0.03434910      0.04801270     -0.00214208       1
O             -18.36740000     -0.05320300     33.49540000      0.02479840      0.08109880     -0.03386130       8
H             -16.77820000     -0.37658600     32.61330000     -0.00024043     -0.00709249      0.00356004       1
H             -18.86810000     -1.53965000     34.13860000     -0.02757560     -0.06944370      0.03241300       1
O              40.63080000      8.36891000     35.52870000     -0.05891130     -0.06299560      0.05965880       8
H              42.03380000      7.27815000     35.65620000      0.02464320     -0.01667040      0.00109863       1
H              41.04160000      9.64122000     34.53380000      0.02458740      0.07752320     -0.06633900       1
O              -2.76847000    -30.84660000     -8.04312000      0.01803320     -0.02951610     -0.02615180       8
H              -0.91825000    -30.54470000     -7.76814000     -0.03124620      0.00142800     -0.00115556       1
H              -2.92229000    -32.60550000     -8.86131000      0.00732774      0.03309790      0.01785950       1
O              58.94070000    -21.55420000    -12.65260000      0.14008700      0.05268630      0.10540000       8
H              58.67030000    -20.83890000    -10.85410000     -0.00031614     -0.01523950     -0.04755920       1
H              57.53510000    -21.86380000    -13.39470000     -0.13690600     -0.03117950     -0.05985400       1
O               9.42439000     -1.81594000     19.78050000      0.01618410      0.04247150     -0.11196600       8
H              11.12010000     -1.95966000     18.90210000     -0.03502620      0.01358520      0.01126090       1
H               9.65471000     -2.59996000     21.23620000      0.01230450     -0.05154560      0.09500380       1
O             -32.44850000     -1.86610000     47.56980000      0.01053390     -0.02418230     -0.05298360       8
H             -31.83910000     -2.52902000     45.79070000     -0.02684390      0.00849543      0.06136690       1
H             -33.32040000     -3.18236000     48.55690000      0.01605930      0.00561984     -0.01351480       1
O               9.82440000    -13.98120000    -10.27970000      0.02408380     -0.00589696      0.02860760       8
H               9.61593000    -15.15080000     -8.76692000      0.01148910      0.01053410     -0.04325730       1
H              11.49230000    -14.05450000    -11.11580000     -0.02095620     -0.00984931      0.01803550       1
O              19.91850000     18.64780000      7.82495000     -0.01689140      0.00823672      0.02281360       8
H              19.82200000     18.82410000      9.66835000     -0.00162520      0.04900630      0.00110937       1
H              19.95070000     16.92590000      8.18936000      0.01711260     -0.06365580     -0.03164080       1
O              17.27220000     20.31510000     -6.66316000      0.02140760      0.03224020      0.00819100       8
H              16.20780000     19.02280000     -7.13445000     -0.03962460     -0.03344430     -0.00446929       1
H              18.89820000     19.60670000     -7.12091000      0.01487120      0.00461797      0.00581802       1
O              23.48010000     46.14640000     30.39660000     -0.01236730      0.01453140     -0.04246620       8
H              22.49760000     44.82000000     31.08540000     -0.01248700     -0.01723620      0.01782710       1
H              24.72570000     46.67660000     31.49850000      0.02716390      0.00498484      0.03098610       1
O              -8.85196000     10.31010000      0.77095800      0.00060606     -0.01684720      0.00164526       8
H              -8.89096000     11.47980000     -0.59900400      0.00955656      0.02747280     -0.00303356       1
H              -8.68899000      8.75265000     -0.15467000     -0.00778330     -0.01371070      0.01410100       1
O              17.12020000    -23.36870000     12.66450000      0.01007890     -0.00326930      0.02245910       8
H              16.20630000    -23.95010000     11.27110000     -0.01507350     -0.00273050     -0.04256870       1
H              15.76080000    -23.42300000     13.85810000     -0.00457981      0.00270743      0.01923680       1
O              -2.71310000     13.53680000     38.36170000      0.01431990      0.00875446      0.01255890       8
H              -3.18412000     11.97420000     39.18150000     -0.00402406     -0.01156600      0.01325800       1
H              -3.50849000     13.36040000     36.78980000     -0.01059630      0.00443184     -0.03137600       1
O              46.81230000     45.85660000     -2.59780000      0.01074910      0.01125150      0.06582170       8
H              47.76300000     45.45600000     -0.80147500     -0.03302680      0.01513230     -0.05978950       1
H              45.69660000     47.35460000     -2.29583000      0.02644710     -0.03136490      0.00018158       1
O              24.15350000      8.12834000    -29.90540000      0.04070910      0.07415500     -0.10919100       8
H              25.69910000      7.93375000    -31.08780000     -0.04761010     -0.00219753      0.03690140       1
H              24.17880000      6.97837000    -28.69030000      0.00798052     -0.07599840      0.07072430       1
O             -14.15500000     47.35720000      6.79635000      0.05583330      0.06943520     -0.00278044       8
H             -12.29660000     47.95070000      7.28131000     -0.04330480     -0.01050670     -0.01356460       1
H             -13.99590000     45.64140000      7.07688000     -0.01229260     -0.05918680      0.00457125       1
O               6.42483000    -29.63520000     41.38540000     -0.00709181      0.11334300      0.00988093       8
H               6.62754000    -31.31780000     41.67800000      0.02588710     -0.05715350      0.02364610       1
H               7.43504000    -28.27310000     42.44540000     -0.01446120     -0.05095000     -0.02216510       1
O              -1.72823000     30.23650000      6.29712000      0.00782510      0.01542290     -0.02461780       8
H              -0.11899000     29.30790000      6.25506000     -0.01223200      0.01462850     -0.00323824       1
H              -1.64437000     31.51030000      4.88420000     -0.00003234     -0.02909890      0.02686620       1
O              -9.41259000     -7.79293000      6.65515000      0.05572590      0.01889050      0.01215440       8
H             -10.79060000     -6.75848000      7.22578000     -0.00301634     -0.00147444      0.00736173       1
H              -7.65813000     -6.92505000      7.13959000     -0.05611330     -0.01622910     -0.01625020       1
O              -4.26296000      9.21345000     15.85550000     -0.06670830      0.01037110     -0.08560160       8
H              -3.23575000      8.81737000     17.15060000      0.05657860     -0.02973270      0.05913040       1
H              -4.28696000      7.89828000     14.51060000      0.00950277      0.01207230      0.02615560       1
O              21.58810000    -15.88860000      0.89536700      0.01914780     -0.03423670     -0.01011890       8
H              21.62540000    -17.68450000      0.21357000      0.00582150      0.03523550      0.01336830       1
H              19.90450000    -15.45180000      1.26161000     -0.02122630      0.00441970      0.00194777       1
O              23.35430000      4.17507000     47.51680000      0.06423380     -0.01393010      0.01180910       8
H              21.91820000      3.22806000     47.24720000     -0.04584810     -0.02245990     -0.00410575       1
H              24.54760000      2.76391000     48.07180000     -0.01923240      0.03642920     -0.00561885       1
O              18.96860000     26.23140000     49.71850000      0.00323227     -0.01866570      0.04591120       8
H              19.26280000     26.18500000     51.74570000     -0.01139640     -0.01287220     -0.07244220       1
H              18.15840000     24.58580000     49.00090000      0.01026010      0.03303000      0.02695180       1
O             -17.98890000      8.04287000     24.29210000      0.01044240     -0.01635960     -0.02336590       8
H             -17.82030000      6.26227000     23.67600000     -0.00326791      0.02112310      0.01929450       1
H             -19.21370000      8.08085000     25.63670000     -0.00278943     -0.00925966      0.00991165       1
