192
TotEnergy=-1103.10027000 cutoff=-1.00000000 nneightol=1.20000000 pbc="T T T" Lattice="25.89556000       0.00000000       0.00000000      -0.00000100      25.89556000       0.00000000      -0.00000100      -0.00000100      25.89556000" Properties=species:S:1:pos:R:3:force:R:3:Z:I:1
O              21.73200000     14.00080000      8.78845000     -0.05899910     -0.02524550     -0.00695445       8
H              19.90190000     13.41840000      8.67188000      0.03894930     -0.01532540      0.01862820       1
H              21.16380000     15.50750000      8.02441000      0.02277830      0.03833430     -0.00953299       1
O              16.39670000     19.63210000     17.09640000      0.00482920     -0.03078150     -0.01653970       8
H              17.63380000     20.73790000     17.69060000      0.02227740      0.02531400      0.01203690       1
H              14.84700000     20.13930000     17.77210000     -0.03029540      0.01616900      0.01008550       1
O              16.71330000     14.49230000     16.95990000     -0.04048660      0.01440870      0.03903770       8
H              17.89830000     13.98300000     15.74890000      0.02627960      0.00977754     -0.01480360       1
H              16.51580000     16.34260000     17.36650000      0.01897820     -0.02826400     -0.02392830       1
O               6.01845000     20.76240000     10.43960000     -0.03278120      0.02667620      0.00137285       8
H               4.91841000     20.30500000     11.79510000     -0.01533730      0.01837760      0.01071420       1
H               6.95360000     19.32090000     10.54370000      0.04763200     -0.04724460     -0.00955396       1
O               3.10252000      9.43309000      6.61588000      0.05208890      0.01474990     -0.00619182       8
H               1.67287000      8.61054000      5.99888000     -0.03373560     -0.00156455      0.00945701       1
H               2.93239000     10.49540000      8.08558000     -0.01353510     -0.00786997     -0.00297499       1
O               7.72712000      0.56900900     19.38780000      0.00236052      0.00745619     -0.00730372       8
H               7.29118000      1.65768000     17.93970000      0.00360897     -0.00468214      0.00477292       1
H               6.14664000      0.27030800     20.20590000     -0.00509068     -0.00250327      0.00228795       1
O               9.83121000     17.74250000     16.02950000     -0.00374653     -0.00155749     -0.00137763       8
H               8.02915000     17.97020000     16.16360000     -0.00842701      0.00943597     -0.02388450       1
H               9.92020000     16.64240000     17.44370000      0.02122740     -0.01674200      0.01570530       1
O              11.08690000      1.52735000     25.33910000     -0.03452950     -0.02367850      0.00882991       8
H              12.35410000      2.57709000      0.06192800      0.02827440      0.01910300      0.00409519       1
H              10.98300000      1.54181000     23.55270000      0.00441772      0.00355078     -0.01107120       1
O              24.83660000      5.42738000     16.24000000      0.01614400     -0.09546010      0.04622960       8
H              24.10850000      4.94767000     17.94410000      0.00336396      0.04644390     -0.04609600       1
H              24.75290000      6.77194000     15.16890000     -0.01984650      0.05534870     -0.00153751       1
O               1.75490000     24.21010000     21.43100000     -0.02945000      0.06017280     -0.03819060       8
H               0.80227400     -0.11369800     21.87810000      0.01296130     -0.02391120     -0.02354490       1
H               1.96574000     23.70090000     23.05450000      0.01828670     -0.03703070      0.06214540       1
O              23.26670000     20.36780000      7.51041000     -0.03161310      0.07932980      0.09512920       8
H              22.06330000     21.93730000      8.33426000      0.06146630     -0.07039090     -0.02367490       1
H              22.37190000     20.30800000      6.05288000     -0.02876410     -0.01260660     -0.07160830       1
O               7.58609000     15.19150000      5.38207000      0.03146360     -0.04346450      0.01275170       8
H               9.12997000     16.15290000      5.22675000     -0.02235000      0.01561650     -0.00230381       1
H               6.01165000     15.88560000      5.02920000     -0.01544830      0.03334740     -0.00701241       1
O              22.61720000     19.09560000     22.41030000      0.08897780      0.02903130      0.04560960       8
H              21.86300000     17.96710000     21.31510000     -0.00105450     -0.03406930     -0.02777210       1
H              24.74820000     18.79750000     22.65400000     -0.08744640      0.00242863     -0.01004890       1
O               8.03436000      8.86625000     16.29910000      0.01180790      0.00846772     -0.02270460       8
H               8.10003000      9.45479000     14.53670000     -0.00563284     -0.00465548      0.01960930       1
H               9.79037000      8.41913000     16.63890000     -0.00948772      0.00068027      0.00661709       1
O              -0.31469100      2.31531000     11.73910000     -0.04734780     -0.06508240     -0.06977960       8
H               1.27101000      1.81680000     11.20420000      0.04425140     -0.00572965     -0.00287470       1
H              -0.31737500      3.46890000     12.95050000      0.01264250      0.06629500      0.07448330       1
O               4.53466000      7.15732000     22.15650000     -0.03092770     -0.01695870      0.04149230       8
H               5.82508000      7.62199000     21.11370000      0.03661580      0.01939470     -0.04790830       1
H               5.48581000      6.70707000     23.62830000     -0.00409424     -0.00303577      0.00920713       1
O               2.65897000     21.81020000     15.92280000     -0.03761110     -0.00806359     -0.04387780       8
H               2.89647000     22.40540000     17.54710000      0.00800091      0.01475860      0.04008230       1
H               0.90624200     22.39730000     15.53600000      0.02424650     -0.00972410      0.00358547       1
O              15.48050000      0.07560600      9.01391000     -0.02023660     -0.04315690     -0.07026050       8
H              14.98770000     24.54150000      7.61185000      0.02090680      0.05127970      0.04626280       1
H              15.85310000      1.44528000      7.79266000      0.00026487     -0.01063240      0.02676450       1
O              19.90100000     19.27930000      2.65634000      0.01945420      0.03690030     -0.01471250       8
H              19.15370000     17.81550000      3.29109000     -0.01210170     -0.03527460      0.00409747       1
H              20.75690000     18.96130000      1.06283000     -0.00298988     -0.00149918      0.01446510       1
O               4.53511000     14.39520000     20.22260000      0.11237300     -0.03544550      0.01157550       8
H               6.75317000     14.15890000     21.12060000     -0.09037770      0.00725959     -0.04432680       1
H               3.86062000     15.63520000     21.26040000     -0.01546950      0.03307690      0.03063650       1
O              11.79710000     22.00930000     20.40930000     -0.03215610      0.02869380     -0.02107240       8
H              10.02280000     22.48940000     20.07150000      0.02396680      0.03171670     -0.02576950       1
H              11.02630000     20.79870000     21.38980000      0.01236220     -0.05921850      0.04867390       1
O               9.84552000     12.25250000      9.83350000     -0.02713750     -0.06706330     -0.01819690       8
H              11.06620000     12.95960000     10.77620000      0.06809890      0.02311540      0.05211260       1
H               9.12078000     13.72560000      9.31461000     -0.04121300      0.04139700     -0.03482980       1
O               6.09933000      2.19989000      2.22958000     -0.02804880     -0.06829600     -0.02206190       8
H               7.58701000      2.01704000      1.27020000      0.01992870      0.00168004     -0.00861208       1
H               6.11729000      3.67121000      3.09433000      0.00719172      0.06485030      0.02783280       1
O              10.70160000      1.80771000     10.82030000     -0.06208740     -0.05453670      0.07572570       8
H              12.01710000      0.87674500     10.24930000      0.05863490     -0.03129000     -0.02213670       1
H              10.62920000      3.26758000     10.02210000      0.00047556      0.09172920     -0.05044580       1
O              17.37530000     14.46580000      4.19608000      0.05702200     -0.02291280      0.13722400       8
H              16.70330000     13.68040000      2.85850000     -0.03205730     -0.04629930     -0.07368420       1
H              17.85760000     12.87560000      5.55845000     -0.02811120      0.07160550     -0.06596210       1
O              18.76640000     22.56240000     12.19660000     -0.06935550      0.06704110     -0.04286050       8
H              17.16210000     23.87360000     11.49360000      0.07845930     -0.04535370      0.02067330       1
H              17.74550000     21.62320000     13.30930000     -0.00701276     -0.01994770      0.01730820       1
O              19.99400000      6.64636000     13.11450000     -0.02617770      0.07625980     -0.00422869       8
H              20.99570000      5.20063000     13.34110000      0.02280770     -0.00289570      0.01588160       1
H              20.48800000      8.39153000     13.89290000      0.00105178     -0.06862370     -0.01434270       1
O              10.39110000     14.18560000     20.97580000     -0.03828340      0.10894800      0.07047250       8
H              11.55260000     12.96200000     21.00510000      0.05508140     -0.07120580     -0.00594898       1
H              10.94090000     15.19620000     22.68100000     -0.02674300     -0.02909660     -0.06442880       1
O              13.77170000      1.65377000     17.84750000     -0.01041270     -0.01080390      0.02395600       8
H              14.34370000      0.81172500     19.38920000      0.00915325      0.01141750     -0.01240400       1
H              12.04990000      1.04467000     17.86400000     -0.00013155      0.00362352     -0.00979305       1
O              16.22260000     11.18130000     -0.13162400      0.02815480     -0.01222890     -0.01063280       8
H              17.08310000     11.51630000     24.04290000     -0.02127260     -0.02512260      0.04746890       1
H              17.06390000      9.74846000      0.84370200     -0.00531173      0.02862940     -0.02968120       1
O              20.34960000     23.82880000     19.86450000     -0.06711800      0.05833380     -0.02603360       8
H              21.34220000     24.74260000     18.67680000      0.01480610     -0.01060950     -0.00501816       1
H              21.08590000     22.55710000     20.70670000      0.05469990     -0.05609620      0.03218520       1
O               6.90965000      7.46530000      3.16943000      0.02502220      0.00369013     -0.03067560       8
H               7.65664000      8.74279000      2.08368000      0.01634300     -0.01429370     -0.00073775       1
H               5.68913000      8.51722000      3.85957000     -0.03517330      0.01302870      0.03670180       1
O              12.51070000      7.20215000     19.08810000      0.01082490     -0.00565010      0.03019350       8
H              13.00810000      5.45404000     18.63690000     -0.00333504      0.01424640      0.01179230       1
H              12.66760000      7.45136000     20.96370000     -0.00310341     -0.01313610     -0.04196980       1
O              24.34420000     12.56550000     20.26840000      0.01664030      0.01448200      0.00982621       8
H              23.95510000     12.38960000     22.05850000      0.00388244     -0.00423871     -0.01275730       1
H               0.18104900     13.25540000     20.23870000     -0.02098280     -0.01343460     -0.00052539       1
O              16.46810000     11.59840000      9.20314000     -0.00653707      0.02961500     -0.08412800       8
H              15.32070000     12.86470000      9.69492000     -0.01243650      0.01092310      0.01600330       1
H              17.12910000     10.68530000     10.46350000      0.02227110     -0.03841940      0.06751240       1
O              10.94730000     11.13940000      0.62199200      0.02943110     -0.04951580     -0.01133160       8
H              12.81790000     10.86030000      0.38382300     -0.02877360      0.01048970      0.00267439       1
H              10.70600000     12.85430000      0.82628500     -0.00264402      0.04057120      0.00675451       1
O              24.79150000      9.84065000     -0.21098500      0.05012020     -0.01055180      0.00700745       8
H               0.66299100     10.36910000      0.06824400     -0.02229410      0.03174100      0.00020341       1
H              25.53960000      8.21273000     -0.58533800     -0.02977550     -0.02156880     -0.01090540       1
O              10.89400000      7.23897000      7.82839000      0.03203790     -0.02491240      0.01928310       8
H              10.56490000      8.95291000      8.24871000     -0.01351980      0.01388480     -0.00523413       1
H               9.91829000      6.57954000      6.49352000     -0.01614640      0.01011490     -0.01404660       1
O              17.52420000     10.45650000     20.57650000      0.01499910      0.01542170      0.01320630       8
H              17.29080000     12.02510000     19.66700000     -0.00015937      0.00033230     -0.00963163       1
H              16.69930000      9.19930000     19.62550000     -0.01706900     -0.01074070     -0.01094980       1
O              16.20840000      5.53573000      8.07663000      0.00543211     -0.01779440     -0.04700020       8
H              14.46830000      6.10436000      8.22379000      0.00823361      0.01790950      0.01415420       1
H              17.66900000      6.19716000      8.88501000     -0.01129370      0.01070640      0.02427950       1
O              13.38910000     15.80800000     12.16200000     -0.10912700      0.05023880      0.00957267       8
H              14.15010000     14.99280000     13.46320000      0.04241740     -0.03178910      0.05135210       1
H              11.54630000     16.48290000     13.61940000      0.05994950     -0.01350390     -0.05173480       1
O              21.61510000     12.19510000     15.19840000     -0.05956440     -0.02203510     -0.00836775       8
H              22.31520000     12.42080000     16.81660000      0.02968770      0.00605051      0.01039470       1
H              22.45600000     12.47960000     13.66980000      0.03011080      0.01334000     -0.00495102       1
O              10.42900000     22.38870000      2.27438000      0.02434120     -0.03604270      0.02151210       8
H              11.03760000     24.01510000      1.86115000      0.00200317      0.02037930     -0.01476900       1
H              11.76400000     21.78000000      3.46510000     -0.02302380      0.00836107     -0.01051150       1
O               1.94788000     17.73590000     24.14900000      0.05375700      0.05959680      0.04111020       8
H               3.20036000     18.94270000     25.49250000     -0.04392830     -0.02056830     -0.06366450       1
H               1.74975000     16.44820000     -0.53589800     -0.01842650     -0.02522140      0.00963250       1
O              16.26200000      2.31086000      1.79800000      0.03498150     -0.00381583      0.00928369       8
H              17.53820000      2.89567000      3.07974000     -0.02541380     -0.00363727     -0.03139080       1
H              17.14920000      2.27109000      0.14251200     -0.00956555      0.00668543      0.01620350       1
O              16.34980000     18.09410000     23.91730000     -0.00122275      0.06357010     -0.10529000       8
H              16.73690000     19.37370000     22.04880000     -0.02382530     -0.06133490      0.08904260       1
H              18.02540000     18.06280000     24.49740000      0.02123590     -0.00183442      0.01345560       1
O               3.32272000     19.55470000      5.67357000     -0.09254450     -0.01427080      0.01017840       8
H               1.56296000     19.55960000      6.63347000      0.04423060     -0.00008058     -0.04927120       1
H               4.13890000     19.96890000      7.16133000      0.04675360      0.01802730      0.03515540       1
O               5.06383000      0.79834300      8.35677000     -0.02333180      0.00427373      0.01237400       8
H               5.09530000      0.88622300      6.59204000     -0.00785826      0.00012167     -0.02912750       1
H               6.78888000      0.69215500      8.72077000      0.02794230     -0.00321096      0.01907400       1
O              23.94770000      9.63080000      5.31292000     -0.00408459     -0.05504600      0.08853710       8
H              24.01590000     10.02680000      3.70271000      0.00503755      0.02470390     -0.11601200       1
H              23.57760000     11.12860000      6.15476000     -0.00880772      0.02847000      0.02364260       1
O               2.59391000     13.54180000      1.31237000     -0.10631800      0.02514730     -0.04787150       8
H               2.82576000     12.67740000      2.71593000      0.01426080     -0.05213390      0.09599470       1
H               4.08921000     13.88350000      0.67807800      0.10050800      0.01914090     -0.04131190       1
O              19.17850000      7.27960000      3.05392000     -0.09827100     -0.00432746      0.06080690       8
H              17.50420000      7.31865000      5.26953000      0.05669990     -0.01429200     -0.07083920       1
H              20.73160000      7.61022000      3.81329000      0.02818560      0.01105460      0.01856400       1
O              24.27480000      3.20346000      6.33054000      0.00711772     -0.02205720     -0.00031486       8
H              25.06120000      2.91431000      8.00036000     -0.01587160      0.01890820     -0.01898110       1
H              23.88020000      4.90802000      5.91556000      0.00489863      0.00802507      0.01697750       1
O              23.39100000     24.08370000     14.92020000      0.00065626     -0.06372430      0.10035200       8
H              22.17710000     23.27750000     13.99970000     -0.03831670     -0.00877782     -0.04497620       1
H              24.26170000     -0.51671400     14.32780000      0.03715040      0.07670850     -0.05738170       1
O              10.91940000     17.94610000     25.34460000     -0.01184840      0.07240050      0.04401420       8
H              12.62280000     18.42670000     -0.56274000      0.05464340     -0.02522680     -0.02518900       1
H              10.99830000     19.78630000      0.53395600     -0.04526870     -0.04362930     -0.02363890       1
O               1.79730000     13.18690000     11.23580000      0.05740960      0.04846840      0.05217280       8
H               0.94339300     14.33260000     10.20510000     -0.02549300      0.01296860     -0.02514630       1
H               2.87470000     14.61850000     12.25100000     -0.03321230     -0.06352210     -0.02467340       1
O              21.52650000      6.32193000     20.84030000      0.01849210     -0.02946030      0.01457160       8
H              20.35600000      7.62036000     20.28000000      0.02177500      0.00695755      0.02611100       1
H              22.65210000      6.41836000     22.39100000     -0.03721480      0.01714820     -0.03953480       1
O              12.09070000     18.30820000      5.77792000     -0.03374280      0.02643470     -0.00043163       8
H              12.88550000     18.38830000      7.36357000      0.01124070     -0.00371508      0.01773530       1
H              12.88640000     17.10260000      4.79957000      0.02842780     -0.02802740     -0.01887980       1
O              17.71950000      2.08453000     22.33920000     -0.01136700      0.05433750      0.00292607       8
H              18.71350000      0.65652400     22.34320000      0.02526070     -0.04465760     -0.00776304       1
H              18.89690000      3.39311000     21.72350000     -0.01237520     -0.00828849      0.00598107       1
O               4.80052000     21.64020000      0.51477200      0.06915870     -0.04040110     -0.03020210       8
H               6.70124000     20.86560000      0.59621400     -0.07842580      0.03781660      0.01136340       1
H               4.00969000     21.65450000      2.12329000      0.00679665     -0.00377378      0.02587560       1
O               0.58374600      0.24494900      2.08907000      0.05362270     -0.03764020     -0.03790360       8
H              -0.24364000      1.68093000      2.74796000      0.01271060      0.01514430      0.02392110       1
H               2.54264000      0.19271800      1.90590000     -0.06195530      0.02406290      0.01706030       1
O               7.21943000      3.93390000     15.00050000     -0.08691500      0.03059010      0.06492150       8
H               8.48805000      3.15433000     14.12660000      0.04935620      0.00369894     -0.03005630       1
H               6.85641000      5.70736000     15.74680000      0.04139920     -0.04245360     -0.03514820       1
O              -0.05365800      4.37537000     23.93480000     -0.00401386     -0.01216760      0.01607080       8
H               1.60720000      4.27500000     23.28150000      0.01568700      0.01356300     -0.01792710       1
H               0.11540900      3.09960000     25.24110000     -0.01190850      0.00005563      0.00180416       1
O               4.29235000     16.57660000     15.19580000      0.04345480     -0.04328120     -0.00577879       8
H               3.10510000     17.74760000     15.59140000     -0.04687660      0.05843030      0.00621313       1
H               4.50739000     15.82230000     16.85470000      0.00379827     -0.01597130     -0.00026090       1
O              15.44130000     23.38660000      4.42230000      0.07782840      0.01756590     -0.05989760       8
H              17.02070000     22.35340000      4.75057000     -0.03750170      0.01583680     -0.00751785       1
H              16.25030000     24.57620000      2.84094000     -0.04271070     -0.03428330      0.06633350       1
