192
Lattice="24.38539 0.0 0.0 0.0 24.38539 0.0 0.0 0.0 24.38539" Properties=species:S:1:pos:R:3:force:R:3 TotEnergy=-1103.34862 cutoff=-1.0 nneightol=1.2 pbc="T T T"
O       20.51700000       1.78188000      16.71648000      -0.04029770      -0.01383360       0.09895390
H       20.97370000       2.56408000      18.51658000       0.01016430      -0.00761343      -0.04999860
H       19.25120000       0.60672500      17.65468000       0.02693350       0.02162950      -0.05074680
O       20.78091000      20.39781000      10.29970000      -0.12482100       0.09026540       0.08907210
H       21.77441000      19.66031000       9.23341000       0.07955290      -0.05304670      -0.09981450
H       19.36051000      21.44181000       9.50402000       0.04728600      -0.03396250       0.01124540
O       13.53930000      23.32052000      20.34800000      -0.04853120      -0.01880870       0.01573130
H       12.06030000      21.98622000      20.05020000       0.04118970       0.04319930      -0.00610349
H       14.92370000      23.07836000      19.22460000       0.00148779      -0.01233430      -0.01548440
O       20.69565000      15.02188000       0.05391800       0.00886874       0.03396760      -0.00931784
H       21.02098000      16.74156000      23.61479600      -0.00785101      -0.03087540       0.01331770
H       20.97484000      15.27814000       1.84241000      -0.00160259      -0.00192529      -0.00336088
O        4.96671000       9.05501000      20.61580000       0.04351200       0.02717170      -0.06223050
H        5.63763000      10.58061000      19.24470000      -0.01527890      -0.07515370       0.05991530
H        6.00760000       7.42311000      20.34210000      -0.02227660       0.05606980      -0.00382553
O       22.70846000      12.66960000       9.75759000       0.04065290       0.05773230       0.00324903
H       23.14835000      11.51760000       8.42096000       0.00966325      -0.00143508      -0.00508004
H       24.07685600      14.17710000       9.74619000      -0.04112900      -0.05031110      -0.00255741
O       13.72001000      23.12920000      12.24440000      -0.00034054      -0.08809620      -0.03056590
H       14.46781000      22.49060000      10.60880000      -0.00428733       0.03371430       0.01872540
H       13.01291000      21.31280000      12.60430000       0.00341066       0.04812430       0.01086560
O       23.89882400       0.18589000      13.23010000      -0.08550600      -0.05060350      -0.02091540
H       22.85312000      23.24098000      12.12030000       0.05362890       0.03755400       0.02377180
H       22.38492000       0.41169000      14.38300000       0.03308740       0.01195480      -0.00325305
O        8.19281000      12.24128000      17.46030000       0.00228602      -0.00949537      -0.00513866
H        9.65791000      11.12608000      17.58290000      -0.01229390      -0.00334873      -0.00242367
H        8.61861000      13.52598000      18.69580000      -0.00335076       0.00571486       0.00265785
O        8.66905000      22.22128000       2.14589000       0.00362857      -0.00319254       0.00132947
H       10.43300000      22.59618000       1.94669000       0.01748120      -0.01289790      -0.00988612
H        8.13134000      23.93048000       1.93109000      -0.02197340       0.02345230       0.01227540
O       12.25459000       2.75113000       6.10082000      -0.06612580      -0.10099300       0.15962000
H       10.47969000       2.47140000       5.92185000      -0.00475919       0.00691238      -0.01936040
H       12.90469000       3.55465000       4.88493000       0.06426130       0.09106110      -0.14272500
O       13.54269000       9.45441000       2.62532000       0.05628330      -0.02056380      -0.01162360
H       14.49458000      10.29781000       1.27052000      -0.00009545      -0.00618609       0.00990083
H       12.01839000      10.26481000       2.75082000      -0.05371570       0.02551600       0.00149854
O       15.99200000      18.50768000       4.54029000       0.02119100      -0.00816305      -0.00557651
H       17.40140000      17.20558000       4.71669000      -0.00846476       0.01649640       0.00031529
H       14.66280000      17.44988000       5.06119000      -0.02469780      -0.00692499       0.00579737
O        1.75031000      17.24260000       9.74921000      -0.07311170      -0.02126840       0.00463095
H        2.87431000      17.71170000       8.56201000       0.04506900       0.02142420      -0.06151790
H        2.75081000      17.12260000      11.15751000       0.02159840      -0.00257034       0.05517890
O       22.37162000       3.81025000      21.06430000      -0.03840780      -0.05316140       0.06057510
H       23.58892200       4.70948000      20.17756000       0.04300560       0.02306920      -0.01916370
H       23.10052000       2.64646000      22.42333000      -0.00320370       0.02617290      -0.03574010
O       20.93878000      20.53520000       4.21501000       0.04281460       0.05549460       0.01308880
H       19.16258000      20.66720000       4.10831000      -0.01261550       0.00706520      -0.00003865
H       21.65478000      22.33370000       4.76791000      -0.02205090      -0.05924510      -0.01582150
O       17.07068000      11.42320000      23.64900000      -0.03036420       0.01405950      -0.02528190
H       15.82088000      12.33680000      22.41510000       0.05461860      -0.01990560       0.03066060
H       18.57838000      12.42650000      24.11710000      -0.02502930       0.00728806      -0.01365750
O        8.65739000      12.21262000       2.86529000       0.03278700      -0.00241821       0.04232470
H        8.63439000      12.04462000       4.77379000      -0.00189101       0.00705958      -0.02743220
H        7.01459000      11.90922000       2.26569000      -0.03357770      -0.01340460      -0.00680351
O       16.71222000      22.00040000      16.47291000       0.00286197       0.03595100       0.05175910
H       15.87552000      21.96810000      14.97071000      -0.05140120       0.03025840      -0.05517840
H       17.60492000      20.60050000      16.05711000       0.05638430      -0.06488240       0.00959091
O        7.11182000       2.62939000       3.46048000      -0.06144680       0.04543640      -0.02753730
H        5.84202000       2.03169000       4.75528000       0.01963430       0.00272708      -0.01308710
H        5.91672000       3.97329000       2.33541000       0.04728450      -0.04634400       0.02964930
O        8.23961000      17.43090000      10.34469000       0.02167330       0.07797750       0.10718300
H        8.30701000      15.87140000       9.75499000       0.00031092      -0.10239200      -0.05342340
H        8.98751000      17.10510000      12.14689000      -0.01826880       0.02434020      -0.05375420
O       13.80259000       6.98614000      13.52202000       0.04812680       0.02352840       0.02107690
H       12.91829000       5.72520000      12.61742000      -0.00193016      -0.02530640      -0.01215830
H       15.71636000       6.68179000      13.59492000      -0.04991360      -0.00587353      -0.01107780
O        6.53542000       4.23275000      19.63871000       0.02019190       0.01949880       0.04354670
H        8.27121000       3.91957000      20.24678000      -0.00595672      -0.00492327      -0.00930068
H        6.03802000       3.52237000      18.10154000      -0.00372061      -0.01984620      -0.02442730
O       19.34751000       6.64743000      24.30010000       0.04022850      -0.10514800       0.04534400
H       18.82391000       8.11796000      23.71170000      -0.03501100       0.09442580      -0.04422900
H       20.64081000       5.86730000      23.19970000      -0.01302050       0.00943799       0.00432863
O        0.69320200       9.14582000       6.20601000      -0.09235640      -0.02761140       0.04862860
H       23.48881100       8.28582000       5.51161000       0.03894220       0.02247820       0.01476230
H        1.83680000       9.32152000       4.95301000       0.04890890       0.00830697      -0.06322610
O        8.76654000      12.60881000       8.10189000      -0.03490880      -0.01195720      -0.00185918
H        7.28085000      11.55761000       8.56117000       0.01841700       0.00995998      -0.00198612
H       10.14080000      12.02241000       9.16380000       0.00991163      -0.00488838       0.00339126
O        9.36719000      20.91960000      18.73960000      -0.05945180      -0.00657150       0.02302090
H        7.62669000      21.92990000      18.63600000       0.05257710      -0.03857350      -0.00076237
H        9.00009000      19.31580000      19.75870000       0.00629809       0.03557870      -0.02719790
O        3.57811000      10.27281000       1.42452000       0.03912300      -0.02089170      -0.01517900
H        2.51771000      11.38001000       0.37292000       0.00985654      -0.01525270      -0.00295227
H        4.65651000       9.07061000       0.27712000      -0.05021460       0.03912930       0.02905890
O       12.20790000       8.47211000      18.41860000      -0.01245910      -0.02852760       0.03210240
H       12.13920000       7.47941000      16.89470000       0.00956747       0.00228452      -0.00734189
H       11.96760000       7.16341000      19.80510000       0.00520467       0.02546450      -0.02547840
O        0.77651600       1.00739000       0.49151000       0.00081062       0.00358819       0.00150014
H        0.17443500       1.42669000       2.15421000      -0.00078867      -0.00896185       0.00629543
H        2.01027000      24.00078000       0.62161000      -0.01001310       0.00302173      -0.00404750
O        4.08168000      17.07970000      21.14290000       0.01570970      -0.06401340       0.00560344
H        5.72230000      16.04950000      20.80294000      -0.05338990       0.03221140       0.01721040
H        2.77485000      15.74450000      21.78184000       0.03475760       0.02336930      -0.01918830
O        3.17886000       2.57997000      15.70210000      -0.01068060      -0.06687530      -0.04148540
H        1.67251000       1.75023000      14.68640000       0.04351910       0.00776219       0.01210850
H        2.35967000       4.03134000      16.20620000      -0.02571100       0.04687060       0.02745100
O       11.43198000       3.78862000      21.73188000       0.05468300      -0.03334040       0.02479420
H       12.16288000       2.10392000      20.98018000      -0.01581070       0.04182070       0.02003220
H       12.60248000       4.05242000      23.38878000      -0.03968840      -0.00676307      -0.04961640
O        4.26237000       0.78212000       7.16909000       0.05554920      -0.00744995       0.09243640
H        4.61949000       2.05722000       8.67529000      -0.01444050      -0.03833350      -0.04632920
H        5.37792000      23.45981000       7.95309000      -0.04359800       0.04643270      -0.04629010
O       16.34578000      10.75921000       6.66121000       0.01157070      -0.05147770      -0.05763660
H       15.19578000      10.15341000       5.04383000       0.01976040       0.02538990       0.04456220
H       17.87758000       9.44941000       6.12348000      -0.03739980       0.03381780       0.02858580
O       20.87250000      11.10281000      13.99970000      -0.08003810      -0.00299626       0.05010990
H       19.17430000      12.00851000      14.39190000       0.06216120      -0.02172620      -0.02345970
H       21.78190000      11.66741000      12.53020000      -0.00071605       0.01751690      -0.02715030
O       10.98979000       3.00959000      11.36410000      -0.07175550       0.10857100      -0.02585640
H       11.44149000       3.11009000       9.64865000       0.00863160       0.00536400      -0.02959540
H       11.89469000       1.75349000      11.91050000       0.06875220      -0.10957700       0.05082400
O        1.01188000       6.30604000      18.03340000      -0.09897830      -0.16581100      -0.02753960
H        0.38518000       7.63733000      17.28780000      -0.05552670       0.10962400      -0.05298800
H        2.34468000       6.85174000      18.71320000       0.15506000       0.06739630       0.09111510
O        4.74599000       8.99589000      10.04661000      -0.07603550      -0.05075400       0.00104739
H        4.73609000       6.98739000      10.35671000       0.00534024       0.06344420      -0.01145100
H        2.79699000       9.34629000       9.60501000       0.07380100      -0.01370130       0.00827813
O       19.32670000      15.07710000       5.59731000      -0.06872500      -0.06990240      -0.00926568
H       20.49700000      15.55740000       6.70291000       0.07620760       0.04259290       0.05200980
H       18.64500000      13.63870000       6.74971000      -0.00373127       0.02222700      -0.04762210
O        4.11479000      22.00067000      17.56561000      -0.01979440       0.07527190      -0.00533442
H        3.85929000      21.87763000      19.36111000      -0.00340835      -0.00617827       0.00787351
H        3.48629000      23.95813700      17.20961000       0.02433030      -0.06627740       0.00476590
O       19.36681000       3.28564000       8.42881000      -0.03843860      -0.02349970       0.03195030
H       19.09361000       3.84355000      10.29961000       0.00678668      -0.01096220      -0.05299510
H       18.05881000       1.92000000       8.00011000       0.03429820       0.03511940       0.01536470
O       15.61814000      14.82428000      14.33219000      -0.12501300       0.02575680       0.08725230
H       17.20991000      15.03018000      14.21189000       0.16021300       0.03293750      -0.01565170
H       14.98600000      13.87628000      13.09579000      -0.03917180      -0.05622470      -0.07272970
O        5.84472000       4.01589000      11.44319000      -0.02651260       0.00984514      -0.00513968
H        7.57642000       4.21329000      11.13849000       0.03239730      -0.00358671      -0.00371837
H        5.66392000       4.19669000      13.23559000      -0.00941072      -0.01101130       0.00322803
O       15.91580000      23.08201000       7.22949000       0.01461710       0.00059952       0.01847660
H       14.48950000      23.93817900       6.56548000      -0.01488630       0.01458830      -0.00781985
H       16.04890000      21.52056000       6.33389000      -0.00143522      -0.01339910      -0.00889162
O       10.03118000      15.61184000      20.53481000       0.07050100      -0.02642960      -0.06227920
H       11.85358000      14.86453000      19.92481000      -0.05852460       0.02039140       0.00603555
H       10.58378000      15.89600000      22.17221000      -0.01066570       0.01291350       0.05633420
O        3.81710000      12.02859000      14.22639000       0.00741363       0.11839400       0.09684840
H        5.39743000      12.22669000      15.33178000      -0.03056130       0.01700120      -0.01527430
H        4.35354000      10.61679000      13.61239000       0.03006140      -0.13049400      -0.08000560
O       20.01970000      17.47480000      14.80130000       0.01047440      -0.01778380       0.06479320
H       20.14320000      18.16630000      13.20330000       0.01528950       0.02331800      -0.04097860
H       21.63960000      17.72730000      15.72540000      -0.02102290      -0.00319562      -0.02551640
O       11.80500000      18.55520000      14.52910000      -0.00334276       0.00442786      -0.02969520
H       12.98120000      17.30070000      15.17417000      -0.01242240       0.01417950       0.00995719
H       10.68280000      19.58490000      15.55849000       0.01526040      -0.01746160       0.01951280
O       23.68800000       0.63712000       6.18691000       0.00816259       0.01960280       0.00111116
H       22.98080000       1.71142000       7.45821000      -0.02777860      -0.00043186       0.00227875
H        1.03591000       1.18572000       6.52681000       0.01114150      -0.02586710      -0.01012290
O       19.92336000       7.58357000       5.27974000      -0.00201755      -0.02325320      -0.05924760
H       19.71556000       5.84092000       5.90459000      -0.00141395       0.01150880       0.00917539
H       19.69787000       7.36341000       3.32279000       0.00855485       0.00603463       0.04535980
O       13.67050000      22.45828000       0.81361000      -0.03934490      -0.05186980       0.21727500
H       13.95600000      20.78148000       1.76671000       0.00661757       0.04647550      -0.04877430
H       14.03120000      22.74518000      23.65130000       0.03870180      -0.00003033      -0.16220600
O       21.50558000      19.68700000      22.56951000       0.05174110       0.00208403      -0.09085650
H       23.00335000      20.71380000      21.89001000      -0.04050480      -0.03194150       0.02138040
H       21.18842000      20.31240000      24.12071000      -0.01128880       0.03409920       0.07374920
O        9.11821000      16.65191000       0.95716300      -0.00763760       0.02111920       0.04230040
H        8.69431000      18.07451000       2.14217000       0.00813028      -0.02863920      -0.03001060
H        8.90991000      15.05071000       1.98913000       0.00421704       0.01675660      -0.01456790
O        1.64201000      17.79650000      15.23938000      -0.00046660       0.19032700      -0.06063410
H        1.77491000      16.38520000      15.99998000       0.02198350      -0.13436400       0.08609070
H        2.48411000      19.35430000      16.17708000      -0.02145640      -0.05488390      -0.02301560
O        3.92389000      21.48361000      23.67471800       0.07102530      -0.02491240       0.01401760
H        4.09389000      19.55951000      23.31316000      -0.00700042       0.04167420       0.00188475
H        5.77509000      21.87131000      24.35471600      -0.06138950      -0.01530940      -0.02033820
O        6.57524000      20.72108000       6.94381000       0.05469330       0.01692580      -0.01765940
H        7.56009000      19.84508000       8.26341000      -0.01177050      -0.00078538      -0.00435294
H        7.96776000      21.28268000       5.67361000      -0.04716350      -0.01265850       0.02594860
O        3.97574000       5.21751000      24.15298900       0.00613957      -0.06384170      -0.04387820
H        5.06861000       4.69351000      22.18550000      -0.05351790       0.00449790       0.07825220
H        2.61220000       3.77481000       0.25597500       0.05134440       0.04343230      -0.03234360
O       12.87169000      11.42829000      10.72750000       0.05987660      -0.00599019      -0.04298310
H       13.01689000       9.79629000      11.59330000       0.00196388       0.00766874      -0.00244734
H       14.36759000      11.29669000       9.23779000      -0.04804510      -0.00372886       0.04217910
O       19.29521000       5.75281000      13.04320000      -0.01811060       0.12804900      -0.01913970
H       19.46880000       7.80314000      13.71560000       0.00503929      -0.07740870      -0.04006120
H       19.63955000       4.95656000      14.51570000       0.01647970      -0.04853940       0.06166060
O        0.67481000      12.93339000      22.52551000      -0.06686360      -0.00518921      -0.05718860
H        0.13791000      11.76859000      20.88983000       0.02755160       0.04410970       0.04834810
H       23.38330000      13.94419000      22.84568000       0.04528470      -0.03465250       0.00143307
O        0.00611000      11.08480000      17.38361000       0.00396379       0.00945101      -0.04586520
H       22.65980000      11.09520000      16.27541000       0.06521730       0.00667792       0.02383900
H        1.76541000      11.44660000      16.18761000      -0.06639690      -0.00654706       0.02677490
O       14.80390000       3.45361000       1.53572000       0.02071800       0.10680000       0.02005050
H       16.46970000       4.34071000       1.28152000      -0.03112430      -0.02302620      -0.00383371
H       14.75870000       1.84471000       1.01432000       0.01247840      -0.08186790      -0.01991120
O       14.51649000      12.95520000      19.21270000      -0.03768350       0.03071310       0.12753200
H       15.35859000      13.73490000      18.02830000       0.05758920       0.04779050      -0.09458650
H       13.81319000      11.46770000      18.78420000      -0.02760880      -0.07607900      -0.03050060
