192
Lattice="24.70271 0.0 0.0 0.0 24.70271 0.0 0.0 0.0 24.70271" Properties=species:S:1:pos:R:3:force:R:3 TotEnergy=-1103.48158 cutoff=-1.0 nneightol=1.2 pbc="T T T"
O       22.60790000      19.20133000      17.11312000      -0.03203000       0.00564485      -0.01441140
H       20.98650000      19.47215000      16.24132000       0.01124210       0.01893300       0.01005470
H       22.51250000      17.41719000      16.94842000       0.02293690      -0.02508390       0.00833736
O        1.77498000      23.75199000      22.45595000       0.05721340       0.00151420       0.00869785
H        3.71498000      24.30869000      22.49371000      -0.07162420      -0.02063580      -0.00529754
H        1.53528000      22.48819000      21.12388000       0.01116140       0.01966840       0.00309728
O       13.53130000       1.64959000      16.03070000       0.03053040       0.06118520       0.04790570
H       14.03320000       2.57843000      17.79570000      -0.01876460      -0.04789240      -0.05516020
H       12.41140000       0.24100700      16.14900000      -0.00515778      -0.00998373       0.01142360
O       19.69448000      14.57011000       0.18538200      -0.02152540       0.03117280      -0.00377728
H       20.82177000      14.31241000      23.53738000       0.01762670      -0.01678640      -0.01560650
H       19.03087000      16.27543000      24.33206900       0.00862946      -0.02091000       0.01933340
O        5.66135000       8.14379000      20.15470000       0.03938910       0.01447980       0.05885710
H        7.24104000       8.93289000      20.98870000      -0.04092450      -0.01672840      -0.03194290
H        5.87782000       8.24949000      18.40890000       0.00315980       0.00089472      -0.03048210
O       19.47364000       9.91000000       7.82165000      -0.04973310      -0.04450910      -0.05854290
H       18.64025000      11.51110000       7.91368000       0.00088605       0.02392230       0.00784660
H       18.19615000       9.06026000       6.36673000       0.05442410       0.01883360       0.04521180
O       21.54389000       3.98829000      14.34440000      -0.07891980      -0.00663543       0.00589359
H       22.99979000       3.00099000      14.35410000       0.04332200      -0.01724570      -0.00986215
H       20.19839000       2.64519000      13.94480000       0.02343790       0.02645420       0.01048860
O        0.37491000      17.80072000       8.00625000       0.01931050      -0.01716190       0.02558620
H        1.77249000      18.06742000       9.37420000      -0.03452810       0.01796020      -0.04555240
H       24.02002600      19.19512000       7.35933000       0.02157140       0.00186805       0.01737290
O        8.21379000      14.90962000      17.19460000       0.06921140      -0.00241781       0.08035480
H        7.12849000      14.18012000      16.13130000      -0.07039320      -0.03030650      -0.06454840
H        8.47959000      13.53922000      18.49370000       0.00019627       0.02952570      -0.01130940
O        7.47755000      22.21502000      22.69552000       0.00864113       0.03181710      -0.06801060
H        9.11352000      21.97772000      23.32962000       0.04070430      -0.00795172       0.00440205
H        6.49040000      21.70052000      23.98162000      -0.04521400      -0.02706690       0.06110540
O       11.20091000       3.82956000       8.61391000      -0.01632110       0.00707533       0.07229200
H       11.72581000       3.94093000       6.99891000       0.02812040       0.00435475      -0.08104270
H       12.20481000       5.06865000       9.52632000      -0.01240620      -0.00825792       0.00291515
O       13.19151000       4.58929000       3.83568000       0.20740200      -0.10460400       0.07362050
H       11.96651000       5.05059000       3.02338000      -0.21667200       0.08992090      -0.11845900
H       13.91111000       3.38849000       2.44508000       0.00489922       0.01177660       0.04399150
O       12.38910000      14.55582000       8.53531000      -0.02680350      -0.02751100       0.06228010
H       12.11140000      13.30472000       7.30741000       0.01588220      -0.00076970      -0.05903310
H       11.54690000      13.32642000       9.73851000       0.02027570       0.04197680       0.00749766
O        4.17889000      14.11400000      13.57989000      -0.03089660      -0.02671140      -0.01189440
H        2.44539000      14.06680000      14.43899000       0.03558970      -0.00185644      -0.01471260
H        4.19789000      12.72600000      12.29149000      -0.00505699       0.02620310       0.03064120
O        0.70638700       2.23301000       3.01469000       0.02293890       0.00869047      -0.02808140
H        1.90341000       2.39308000       1.58522000      -0.01098800       0.00893325       0.01956770
H        0.35677700       0.48175500       2.85152000      -0.00869520      -0.01743640       0.00702096
O       16.99962000       0.39719000       8.23109000       0.05474580       0.01459350       0.01570330
H       16.52532000       1.92629000       7.43269000      -0.01220490       0.00029530      -0.00902264
H       15.78852000      23.83500000       8.26159000      -0.03909510      -0.01484080      -0.00338176
O       15.90352000      11.02700000       0.28789000       0.07273250       0.06950140       0.24072600
H       15.37232000      10.52880000      23.64130000      -0.08322210      -0.07990570      -0.23693000
H       17.45902000      11.92420000       0.13909000       0.01272220       0.01816750      -0.00809977
O        1.98911000      17.27858000       3.00661000       0.00279689       0.05735110      -0.11533300
H        2.03281000      17.09868000       4.64271000      -0.00388895      -0.01387580       0.13151800
H        1.53391000      15.74098000       2.31421000      -0.00382874      -0.04551500      -0.01557450
O       17.84698000      19.20410000      14.13239000       0.09413140      -0.01631410      -0.02233390
H       17.76868000      20.92470000      13.87039000       0.00790055       0.05616600      -0.01056100
H       16.27868000      18.86660000      14.58119000      -0.09753570      -0.03396910       0.03238980
O        7.75468000       5.49411000       2.55257000      -0.02289970      -0.05568120       0.00913038
H        7.03208000       4.54091000       4.08566000       0.01681600       0.03391440      -0.03638010
H        7.18258000       4.33621000       1.06002000       0.00463869       0.03438790       0.02754360
O        4.80409000      18.81050000      10.51051000       0.05926010      -0.02126860      -0.03693490
H        6.64779000      18.72550000       9.45791000      -0.05329970       0.00757127       0.03688130
H        4.73929000      17.06850000      11.14091000       0.00088978       0.01395340       0.00859643
O       10.71601000       6.20610000      13.41448000       0.07532280      -0.00596995       0.05636770
H       10.89711000       8.06456000      13.86958000      -0.00739314      -0.03577640      -0.01776660
H       12.35481000       5.30588000      14.35918000      -0.07298460       0.02925800      -0.03720910
O        5.83849000       2.74846000      23.45114000       0.01851120      -0.00433824      -0.00530491
H        5.51660000       3.50475000      21.71500000       0.01335200      -0.02384210       0.02815100
H        7.23016000       1.47044000      23.50646000      -0.02691640       0.01916070      -0.02034760
O       20.23219000       2.90261000       2.86519000       0.07449600       0.02118920       0.00916195
H       19.43559000       4.53977000       3.13119000       0.00219820      -0.00082223       0.00290118
H       22.26669000       3.26604000       3.14659000      -0.07493320      -0.01890480      -0.01288600
O        0.09728500      11.29678000       7.88779000       0.07962540       0.03341710      -0.00531930
H       23.35772000      10.37578000       7.80129000      -0.07153940      -0.02339800       0.00003511
H       24.58095600      12.96098000       8.57259000      -0.01452780      -0.00169146      -0.00128262
O       10.26420000      11.10589000      12.69910000       0.01150000       0.02771840       0.03389110
H        8.96140000      11.21719000      11.33640000       0.00014251       0.00853825       0.01368430
H       10.15700000      12.38359000      14.12350000      -0.01242740      -0.02663350      -0.04414230
O        6.73521000      20.03940000      17.78250000       0.00003679      -0.03609690       0.03712490
H        6.76581000      18.17810000      18.30530000       0.00612820       0.03397570      -0.02860860
H        6.83411000      20.75970000      19.48480000       0.00549522       0.00754404      -0.00260784
O        8.08229000      10.78329000       1.74118000       0.00828731      -0.07767740       0.00199365
H        7.56649000       8.89479000       2.03978000       0.01974650       0.03990820      -0.00879160
H        6.58789000      11.55039000       2.27078000      -0.03498840       0.02576400       0.00406866
O       14.63570000       9.06499000      20.25510000      -0.00110437       0.02782560      -0.02350770
H       15.38520000       9.31529000      18.54940000      -0.00815712      -0.00718224       0.02383060
H       14.78660000       7.35229000      20.77060000       0.00799467      -0.01955660      -0.00698393
O        2.09277000      22.23532000      17.41920000       0.00085087       0.02216460       0.00307235
H        0.94649700      20.85862000      17.51560000      -0.02728920      -0.00942344      -0.00987902
H        3.69631000      21.43262000      17.47120000       0.02378800      -0.00858019      -0.00755621
O       23.65219000      21.12230000       1.23181000       0.03314140      -0.03006880      -0.00287201
H       24.63404200      19.56260000       1.91035000      -0.01925480       0.03143720      -0.01311220
H        0.16078300      21.82300000      24.65590600      -0.01721290      -0.00027438       0.01554560
O        0.94165100       1.60202000      13.19550000       0.02490940      -0.02251230      -0.03123000
H        1.28527000       1.14945000      11.23000000       0.00002778       0.00021595       0.08641060
H        1.64381000       0.47164500      14.58640000      -0.01179190       0.01019120      -0.05476880
O       15.95642000       3.59838000      20.63292000       0.02205750      -0.03170520       0.06373460
H       17.91052000       3.71788000      20.52882000      -0.04691060       0.00711899      -0.00407778
H       15.60802000       2.64028000      22.38842000       0.01454980       0.03226960      -0.06282600
O        6.08288000       4.81698000       7.98371000      -0.02517290       0.00191044      -0.01161040
H        7.83691000       4.73008000       8.31851000       0.02460560      -0.00199058       0.01079190
H        5.46733000       3.11908000       8.15031000      -0.00380567      -0.00503453       0.00143489
O       12.42302000      12.17349000       4.23113000       0.13575700       0.05316990      -0.01526720
H       13.40432000      11.97439000       2.59538000      -0.02038690      -0.00054922       0.03613270
H       10.99292000      11.38379000       4.10325000      -0.11361300      -0.06098240      -0.02696020
O       15.84460000      11.05489000      14.94180000      -0.00793944       0.01066890       0.02847860
H       17.36810000      10.40869000      14.18670000       0.01092850      -0.00633056      -0.01487770
H       14.42510000      10.79279000      13.88630000      -0.00220139      -0.00447377      -0.01429790
O        7.00201000      11.52401000       8.88754000      -0.02530830      -0.02427730       0.03232370
H        7.50181000      10.92111000       7.28533000       0.00231223      -0.00497157      -0.01477540
H        5.65321000      10.19581000       9.57166000       0.02219770       0.02519090      -0.01553990
O        3.54812000       2.65484000      18.98700000      -0.01084020      -0.04869590      -0.06532780
H        2.89772000       0.90357800      18.30270000       0.01778190       0.04839940       0.03131070
H        4.12742000       3.47572000      17.31620000      -0.00758570       0.00206383       0.03361940
O        3.36451000       8.46891000      10.55049000       0.04264320      -0.03081140      -0.00536901
H        4.00761000       7.13391000       9.32999000      -0.01654820       0.02138910       0.01993630
H        2.05111000       9.45671000       9.82989000      -0.01999720       0.00466155      -0.01798390
O       15.45970000      17.62670000       3.00029000      -0.00319380       0.03218110      -0.14684200
H       15.37110000      17.84230000       4.60119000      -0.00554682       0.00127684       0.14987500
H       15.74260000      15.98710000       2.46159000       0.00438070      -0.03516410       0.00508998
O        3.57751000      23.95203200       8.50419000      -0.00756219      -0.06040190       0.02022500
H        4.28601000      22.37425000       9.45849000      -0.01993390       0.04731620      -0.02419580
H        2.00991000      23.20070000       7.78969000       0.02183040       0.01503420       0.00496326
O       20.20179000       9.05317000      12.70929000      -0.00888020      -0.02481140       0.00649218
H       20.38829000       7.37466000      13.55579000       0.00353099       0.02322320      -0.02245800
H       19.85129000       8.81024000      10.85939000       0.00530115       0.00439240       0.02229190
O       15.48286000      19.53592000      20.33408000       0.01704460      -0.02297410       0.00309278
H       17.06669000      19.34332000      21.35574000      -0.02668190      -0.00038877      -0.01612240
H       14.93712000      17.88702000      19.64350000       0.01059990       0.02481070       0.00920893
O        5.28148000       5.60471000      15.26100000       0.06201420      -0.00835515      -0.01271050
H        7.29708000       5.54791000      15.05311000      -0.06772600       0.00000242      -0.00628438
H        4.50188000       5.31741000      13.60761000       0.01140750       0.00674292       0.01358730
O       12.00340000      23.63885000       9.84578000      -0.00802919      -0.00726894       0.02424640
H       11.60840000       0.66644100       9.33443000       0.00047090      -0.00598627       0.01038970
H       11.57140000      23.45117000      11.68310000       0.00687577       0.00303702      -0.03035830
O       12.57682000      21.37389000      23.93079000      -0.02525490       0.03277940       0.02427160
H       13.66302000      20.59405000      22.74999000       0.01888300      -0.01486500      -0.02772930
H       12.55052000      20.33543000       0.68268000       0.00248845      -0.01212860       0.01091550
O       13.55490000      16.45869000      16.22237000       0.00191652       0.00136711       0.00076475
H       14.78720000      15.14055000      16.23659000       0.00905992      -0.00789812      -0.00410976
H       12.03600000      15.59087000      15.77783000      -0.01015970       0.00430449       0.00460593
O       21.54510000      15.68420000      11.36170000      -0.00020287      -0.00449245       0.00781691
H       20.97350000      16.60980000      12.80090000      -0.00732911       0.00160207       0.00458299
H       22.49630000      16.91320000      10.43870000       0.01204480       0.00175147      -0.01080340
O       10.98780000      21.70390000      14.96678000      -0.09608550       0.04635430       0.04271810
H        9.36043000      21.39160000      16.29855000       0.05615540       0.00377901      -0.05550900
H       11.95000000      20.31540000      15.26856000       0.03770680      -0.05108310       0.01116040
O       22.97350000      22.02069000       6.18129000      -0.00473871       0.01991580       0.15674500
H       21.31560000      22.59479000       6.67119000       0.00379369       0.00346373       0.00950093
H       22.81930000      21.87799000       4.57739000      -0.00447467      -0.01460420      -0.16297700
O       17.41772000       7.45540000       3.75771000      -0.03214300       0.01257960      -0.05699780
H       17.37905000       8.57371000       2.14189000       0.00451779      -0.01828710       0.04468970
H       15.67499000       6.69876000       3.47835000       0.02727600       0.00687032       0.02159680
O       17.82400000       0.08251000      13.57560000       0.03270220       0.00296427      -0.10266700
H       17.39580000       0.58231000      11.59600000       0.01309650      -0.02162610       0.07073360
H       16.51220000       0.70911000      14.54890000      -0.04388430       0.01619300       0.02478870
O       24.10919200      14.05430000      16.50159000      -0.02374890      -0.03155140      -0.00128999
H       23.64975000      12.99480000      18.07689000       0.00243183       0.01998580      -0.02851860
H       23.05226000      13.25590000      15.16169000       0.01651240       0.01228700       0.02003760
O       18.62029000      19.57759000      24.43691100       0.08994060       0.02667070      -0.04432150
H       20.44259000      20.18559000       0.20043700      -0.04242050      -0.01385010      -0.01552230
H       17.81159000      19.41649000       1.24683000      -0.03724390      -0.00755897       0.05464480
O       22.03550000      11.45310000      20.30612000      -0.01815900      -0.08407770      -0.04775730
H       23.50820000      10.65440000      21.05212000       0.01120860       0.01133230       0.01629080
H       21.51650000       9.65366000      19.32092000       0.00324244       0.07162800       0.03518710
O        6.36361000      20.10229000       2.70396000       0.05883680       0.03253860       0.06858160
H        5.02551000      19.01669000       2.63863000      -0.05187510      -0.04058210      -0.01160820
H        6.76791000      19.95189000       4.61095000      -0.00196459       0.01015820      -0.05705230
O        9.55753000      19.10152000       8.43649000      -0.00626924      -0.03938360      -0.00832117
H       10.88910000      17.80712000       8.62899000      -0.01797620       0.00668124      -0.00441061
H       10.31320000      20.68942000       8.67289000       0.01393590       0.03107120       0.00875992
O        2.53323000      12.01159000       2.46461000      -0.02833200      -0.00337868       0.05081720
H        1.53412000      11.70059000       4.27418000       0.02969320       0.00135984      -0.08208120
H        1.87438000      11.27859000       0.84923000      -0.00393823      -0.00427415       0.03696770
O       17.67531000      14.94359000       8.26669000      -0.04941900      -0.00879731      -0.01758210
H       15.83251000      14.95116000       8.81556000       0.04482400       0.00127179      -0.00370174
H       18.91493000      15.37497000       9.51693000      -0.00254083       0.00220733       0.01559770
O       20.37515000       5.82309000      19.33060000       0.05002170      -0.03313750      -0.02733140
H       21.82630000       5.53284000      20.56720000      -0.02236310       0.00032192      -0.02802870
H       21.02560000       4.84526000      17.64920000      -0.02106110       0.03393420       0.04548870
O        1.38409000       9.33771000      22.66531000      -0.04196400       0.05584530       0.03744380
H        0.76599000       7.75231000      22.28621000      -0.02184870      -0.05657330       0.00251636
H        2.87029000       9.30501000      21.80722000       0.06676990       0.00395466      -0.03601470
O       24.68510000       4.59374000      22.03649000      -0.01779420      -0.05350190       0.05458780
H       23.87120000       3.61602000      23.69119000       0.04248260       0.03495910      -0.07552740
H        1.35469000       3.54069000      21.09299000      -0.03290650       0.01694870       0.01885120
O       15.86640000       1.21089000       1.17888000      -0.06369070       0.06991130      -0.00097488
H       17.57140000       1.42129000       1.32798000       0.06774450      -0.01193610       0.00889393
H       15.02250000      24.46170000       0.82108000      -0.01114480      -0.06496930      -0.01570590
O        9.94211000      11.61240000      21.50220000       0.02055300      -0.02738660       0.00677765
H       11.68671000      10.97160000      20.79210000      -0.05092030       0.00568003       0.03790470
H        9.34341000      10.94210000      23.26840000       0.02959470       0.02276230      -0.04079030
