192
TotEnergy=-1103.55862000 cutoff=-1.00000000 nneightol=1.20000000 pbc="T T T" Lattice="24.41789000       0.00000000       0.00000000      -0.00000100      24.41789000       0.00000000      -0.00000100      -0.00000100      24.41789000" Properties=species:S:1:pos:R:3:force:R:3:Z:I:1
O              22.68480000     -4.34334000    -29.16020000      0.04046750      0.00334078      0.01618110       8
H              21.10920000     -4.12759000    -30.02040000     -0.01406330     -0.00608535     -0.01144140       1
H              23.87410000     -5.00935000    -30.37710000     -0.01620720     -0.00940312      0.00454468       1
O              47.40780000     44.40340000      0.79362200      0.01534850     -0.02623630      0.16596700       8
H              47.85180000     45.96600000      1.53740000      0.00307035      0.02383480     -0.01502380       1
H              47.13220000     44.26300000     -0.79395000     -0.01815110      0.00698093     -0.15562800       1
O              10.96550000      6.18744000     14.53450000      0.00198511     -0.03152290      0.01589250       8
H              12.06670000      5.56285000     16.06760000     -0.03649430      0.00364435     -0.05159150       1
H              10.21440000      4.77279000     13.35130000      0.03845230      0.02576280      0.04042870       1
O              -5.99372000    -10.09800000     -3.06969000     -0.03867390     -0.00657845      0.01454510       8
H              -4.41204000    -10.62240000     -3.52889000      0.06036730     -0.02789710     -0.02884630       1
H              -5.62208000     -8.73199000     -2.02162000     -0.00501253      0.03835550      0.02135240       1
O               4.47658000     32.35060000     19.83220000     -0.02872790     -0.01278090     -0.05890510       8
H               5.63100000     32.82110000     21.03880000      0.04441340      0.01848580      0.03374110       1
H               5.06084000     33.02240000     18.18020000     -0.00611132     -0.00353471      0.01740040       1
O              -5.26506000     11.03700000      6.71567000     -0.02248500     -0.01466420     -0.01520170       8
H              -5.85032000     10.62500000      8.39600000      0.00114530     -0.01034140     -0.01068780       1
H              -6.25589000      9.98883000      5.32639000      0.02450260      0.02587610      0.03167830       1
O              45.04990000     26.95510000     11.86870000      0.04372730     -0.00681107     -0.00317821       8
H              46.95620000     26.69920000     11.94530000     -0.03413970      0.00243237      0.00624544       1
H              44.35130000     25.25310000     11.64930000     -0.00696904      0.00657968      0.00508113       1
O              -2.34251000    -30.35620000      7.73749000      0.00738398     -0.03968530     -0.03077010       8
H              -0.67347100    -30.94940000      7.05267000     -0.03063980      0.00537664      0.00817292       1
H              -3.61878000    -31.33630000      6.64729000      0.01841950      0.01977850      0.02609640       1
O              31.63260000    -33.69370000     19.43610000     -0.02568700      0.03877670     -0.08390110       8
H              30.22120000    -33.93900000     18.15880000      0.03157170      0.00187723      0.03414370       1
H              31.43240000    -34.90220000     20.64120000     -0.00927852     -0.04778380      0.04696070       1
O               8.83986000    -26.48510000    -25.29250000     -0.00069794     -0.00436893      0.01867420       8
H              10.53820000    -25.75790000    -26.05520000     -0.04610220     -0.05009020      0.04110450       1
H               8.41920000    -28.12530000    -23.83400000      0.05377620      0.05381680     -0.04786840       1
O             -10.67940000      0.31757000      7.98878000      0.04681520     -0.03102860     -0.05278370       8
H             -10.36070000      1.23500000      6.43229000     -0.00527441      0.00419441      0.00997920       1
H             -11.84070000      1.13938000      8.99959000     -0.03654200      0.03096980      0.03135240       1
O             -10.44410000     28.73440000     52.82060000      0.05904940     -0.01927050     -0.04747690       8
H             -12.14620000     28.67580000     52.78790000     -0.08941850      0.01139910      0.03658190       1
H             -10.55590000     27.96590000     51.08130000      0.04268660      0.00972916      0.01425890       1
O              14.34240000    -30.65280000    -15.09620000     -0.06358380     -0.04259700      0.05689300       8
H              15.20310000    -31.73250000    -16.19540000      0.02836050     -0.01366160     -0.02641760       1
H              13.23200000    -32.09140000    -14.14620000      0.03605550      0.05377440     -0.03133540       1
O              29.83910000     13.57420000     37.06360000     -0.06043880      0.01568460      0.00810291       8
H              28.55650000     14.62140000     38.20800000      0.03471750     -0.02454240     -0.03605100       1
H              28.55040000     12.64440000     35.91970000      0.02888900      0.01515770      0.02435580       1
O               0.39501600      0.75853100      2.25034000      0.05306040      0.01201410     -0.07189280       8
H               0.17752800      0.40754400      3.89791000     -0.02007940     -0.01508230      0.08066760       1
H               2.31491000      0.81718900      2.08877000     -0.03740060      0.00179586     -0.00546079       1
O             -31.39770000     23.16690000     35.49800000      0.03329630     -0.04934650      0.00443947       8
H             -32.52060000     23.64690000     34.16100000     -0.01761680      0.00632621     -0.01215030       1
H             -30.85130000     21.39360000     35.06610000     -0.01482210      0.03606360      0.01024930       1
O             -34.21800000     12.29910000     23.79800000      0.00393435     -0.01889610     -0.01756460       8
H             -34.78060000     11.41550000     22.23130000     -0.01238010      0.00909799      0.01515320       1
H             -32.59190000     12.77880000     23.08810000      0.00520579      0.01094880      0.00505103       1
O             -18.82150000     63.45000000    -21.03590000      0.04269210      0.07157960      0.04870230       8
H             -18.20740000     62.75510000    -19.43100000      0.00824460      0.01527450     -0.00081504       1
H             -19.58570000     62.04470000    -21.55590000     -0.04811240     -0.08106330     -0.05402020       1
O              67.69660000     19.42080000     41.37090000     -0.05125860      0.03569030     -0.01099760       8
H              66.31260000     20.80270000     40.95030000      0.03470010     -0.04582250      0.00705815       1
H              66.66250000     17.89340000     41.58080000      0.00630410      0.00055896     -0.00572560       1
O              57.88410000    -21.01530000      4.34045000     -0.01814810     -0.00185931     -0.02387710       8
H              56.58260000    -21.49480000      5.51765000      0.00445963      0.00565519      0.02578390       1
H              56.86080000    -21.30460000      2.83232000      0.00850318      0.00018541     -0.00406119       1
O              30.38540000     18.68640000    -13.57480000     -0.05063700     -0.06313370      0.07985290       8
H              31.38220000     18.84560000    -14.87420000      0.08240890      0.04930950     -0.10804100       1
H              30.78850000     16.82240000    -13.58490000     -0.02991560      0.01535150      0.03027510       1
O             -18.33150000      9.06793000     63.96980000      0.01964520     -0.06003050      0.03871390       8
H             -18.00320000     10.36560000     62.86720000      0.00229186      0.05524580     -0.03338300       1
H             -16.67370000      8.23568000     64.16400000     -0.00774377      0.00448920     -0.00119256       1
O               5.37254000      1.65711000      1.00190000      0.02753970     -0.00499631     -0.03258750       8
H               4.81450000      2.39632000     -0.62812100      0.00194855     -0.00730404      0.01963490       1
H               6.86358000      0.56008200      0.46606100     -0.02733620      0.00412658      0.00365668       1
O              45.11040000      4.20872000     25.30850000     -0.01085430     -0.00950318     -0.01898210       8
H              44.55960000      5.86687000     25.69870000     -0.00128913      0.01176780      0.01192730       1
H              46.66930000      3.81527000     26.12340000      0.00650039     -0.00188614      0.00388785       1
O              -0.20853600     60.41620000     29.89060000      0.00778901     -0.01650290      0.01325810       8
H              -1.88731000     60.58920000     30.50810000     -0.03007150     -0.03027430      0.00985438       1
H              -0.10470500     62.14420000     29.54180000      0.02298250      0.04114050     -0.02388070       1
O              11.50360000     37.83050000     10.67380000      0.04996170     -0.04288360     -0.01145730       8
H              10.32460000     37.13910000      9.42650000     -0.00394213      0.00735195      0.00854890       1
H              12.98870000     36.51450000     10.55350000     -0.04146350      0.03528210      0.01177410       1
O             -17.39240000     20.56070000     19.00810000     -0.02452240      0.02087810     -0.21661600       8
H             -17.58470000     18.90190000     18.85290000     -0.00504269     -0.09063730      0.01080100       1
H             -17.21750000     21.18160000     20.43590000      0.03187180      0.07084710      0.20489500       1
O              32.71330000     32.94620000     52.26980000      0.04493360     -0.03434710      0.01954670       8
H              32.84340000     31.07820000     52.60840000      0.00532238      0.02816340      0.00007679       1
H              31.08990000     33.12990000     51.67240000     -0.05552310      0.00857972     -0.01830130       1
O              12.85060000     34.68860000     19.51010000      0.00422959     -0.02425530      0.04792820       8
H              12.77140000     35.51090000     17.98300000     -0.00863229      0.03238210     -0.04910000       1
H              13.87220000     33.23540000     19.22840000      0.00519011     -0.01932520     -0.00147302       1
O               2.38242000    -25.62850000     18.02060000     -0.00838462      0.01428230     -0.01328180       8
H               1.18551000    -26.84670000     18.56430000     -0.02347350      0.00207930      0.01056330       1
H               3.88470000    -26.59180000     18.09120000      0.03166540     -0.00712212     -0.00210048       1
O               0.50260600     16.31020000      3.78917000      0.02823410      0.00531319     -0.00146340       8
H               2.32683000     16.23760000      3.33284000     -0.02370630     -0.00107061      0.00814241       1
H              -0.27378700     17.52780000      2.64721000     -0.00052663      0.00034625     -0.00347902       1
O               1.18007000      1.00727000     13.13040000      0.00648740     -0.03732220      0.05717400       8
H               1.73457000     -0.00728900     11.65740000     -0.00148415      0.00468162      0.02031930       1
H               1.40424000     -0.11196900     14.94170000     -0.00477414      0.03920430     -0.07313810       1
O             -33.82800000     53.69530000    -30.23920000     -0.03294490      0.01952040     -0.01386730       8
H             -32.35290000     53.88060000    -31.23870000      0.02312520     -0.00011433     -0.01261920       1
H             -33.38950000     52.91920000    -28.69450000      0.00096849     -0.01123220      0.02108900       1
O               6.18624000     51.52930000    -15.93280000     -0.06145430     -0.04478960     -0.01255380       8
H               5.09709000     52.58090000    -14.85100000      0.00958541      0.00487271     -0.00105066       1
H               4.84114000     50.13110000    -16.44620000      0.04492160      0.03431580      0.02224590       1
O             -34.57310000     40.68800000      2.42308000      0.04477750      0.00348749      0.00788553       8
H             -34.94820000     39.31350000      1.37035000     -0.00075611     -0.03279110     -0.02966460       1
H             -36.11430000     41.10420000      3.08518000     -0.04804340      0.02210920      0.02223810       1
O              20.04490000     35.33950000     15.80370000      0.02346830     -0.06786070     -0.01036550       8
H              18.61200000     36.37930000     15.60230000     -0.02338660      0.00757569     -0.00039845       1
H              19.68110000     33.38690000     15.60520000      0.00231063      0.05373920      0.00229430       1
O             -16.72830000    -12.48090000      7.34693000     -0.04407690      0.02141620      0.04075560       8
H             -16.59820000    -13.80030000      6.22589000      0.03208860     -0.04424280     -0.05235350       1
H             -18.33530000    -13.15090000      8.03062000      0.01267990      0.01867730      0.01600930       1
O             -46.24620000      3.41262000     20.40510000     -0.03260750     -0.01851910      0.05053320       8
H             -46.47500000      1.90595000     19.50830000     -0.00127248     -0.03367200     -0.01529750       1
H             -45.01600000      4.33323000     19.62030000      0.03621590      0.04208020     -0.02476780       1
O             -21.76720000    -13.90660000     34.23860000      0.06754680      0.03485600      0.02763670       8
H             -22.15660000    -15.36850000     35.11490000     -0.01946610     -0.04064630      0.00821531       1
H             -22.66050000    -13.27300000     32.90420000     -0.04971340      0.00048745     -0.04504300       1
O              17.87930000     15.89220000     30.49180000     -0.04088740      0.03684670     -0.06065220       8
H              18.15140000     14.30860000     31.20590000      0.01023880     -0.04426010      0.00776087       1
H              16.71660000     15.58010000     28.89440000      0.03257400      0.01068550      0.05044940       1
O             -21.44290000     -1.52788000     33.35840000      0.03837140      0.03403210      0.03749030       8
H             -20.55040000     -2.88596000     34.11070000      0.01254310     -0.01639790      0.00834992       1
H             -22.38530000     -2.17963000     32.07690000     -0.04136220     -0.01919290     -0.04300740       1
O              42.02080000      5.52665000     32.98340000      0.01533410     -0.04576450      0.00402772       8
H              41.02100000      4.48933000     31.83060000      0.00530370      0.01482170      0.00667852       1
H              43.19300000      4.19619000     33.75030000     -0.02222490      0.03651750     -0.00937815       1
O              -7.70057000    -34.17090000     -7.50192000     -0.06112290      0.00246597     -0.00552433       8
H              -7.42234000    -34.17110000     -5.66992000      0.00324797     -0.00544715     -0.00681853       1
H              -9.62881000    -34.40010000     -7.65780000      0.04406940      0.00861366     -0.00222199       1
O              52.44070000    -18.58650000    -12.33170000     -0.05844980     -0.05869870      0.03493810       8
H              53.64270000    -17.86850000    -11.17410000     -0.00054816      0.00735574      0.00765093       1
H              51.22760000    -19.85790000    -11.17970000      0.05264640      0.04422740     -0.05066140       1
O              10.43790000      1.95199000     11.28190000     -0.08109420     -0.05407870      0.02064270       8
H              10.18910000      0.38713900     12.42600000      0.02052940      0.03290340     -0.01901150       1
H               8.57117000      1.70305000     10.55230000      0.05299170      0.02416310      0.00269399       1
O             -34.40570000     -2.07510000     45.73570000      0.01865980     -0.04554730     -0.06718560       8
H             -34.36750000     -2.53734000     43.76990000     -0.00517924      0.02929590      0.06511870       1
H             -33.28740000     -3.47214000     46.36620000     -0.01604210      0.02231970      0.00481172       1
O              11.26900000    -10.65900000     -8.40636000     -0.02367830      0.00037623     -0.00885387       8
H               9.64775000    -10.55810000     -7.30589000      0.04131310      0.00491074     -0.04230700       1
H              11.09280000    -10.59550000    -10.35970000     -0.01153560     -0.00545958      0.04975040       1
O              22.48120000     19.38350000     13.38080000     -0.01411080     -0.00140953      0.05416150       8
H              21.09650000     18.81330000     14.67090000      0.02309540      0.01747990     -0.04565710       1
H              22.37330000     18.74910000     11.71600000     -0.01417810     -0.01310520     -0.01280630       1
O               9.42556000     21.66820000    -10.34740000      0.03204840      0.03281410      0.02322940       8
H               8.90897000     21.53810000     -8.62676000      0.00579480      0.01463460      0.02508820       1
H               8.31618000     20.46100000    -10.87930000     -0.03629010     -0.04354140     -0.04739710       1
O              22.89900000     47.54530000     31.40570000      0.00229460      0.03840650      0.00347291       8
H              22.58250000     48.06180000     33.12250000      0.00279213      0.00689246     -0.00778248       1
H              22.43830000     45.82010000     31.52440000     -0.01235730     -0.03246330     -0.00514115       1
O              -7.48159000      8.95449000      2.70497000      0.00557465     -0.00441945      0.00759675       8
H              -8.23873000     10.12200000      1.48597000     -0.00880548     -0.00618611      0.00766435       1
H              -8.75597000      7.89483000      3.49557000     -0.00027117      0.00021180     -0.01376790       1
O              14.81360000    -26.76220000     15.41760000      0.12713500      0.05065390      0.04520630       8
H              13.33160000    -27.24370000     14.88080000     -0.10856600     -0.03604390     -0.04954280       1
H              15.86640000    -26.00490000     14.05690000     -0.02258440     -0.00889621      0.00298567       1
O               1.94596000     16.38280000     39.73400000      0.04753290     -0.09217720      0.09164170       8
H               1.34586000     14.98210000     41.16700000      0.00771751      0.05309130     -0.05243510       1
H               0.52369900     17.18600000     39.20180000     -0.05948450      0.03389260     -0.02758580       1
O              41.77840000     43.28110000     -0.36958700     -0.00033417     -0.01718060      0.04411300       8
H              43.11160000     43.60070000      0.83410700      0.01789380      0.01620630     -0.01647250       1
H              40.73230000     42.49060000      1.01593000     -0.01204480      0.00651049     -0.03561900       1
O              23.24050000     13.02120000    -30.00720000     -0.02467250      0.01125080     -0.05977710       8
H              23.71630000     11.64750000    -28.96350000      0.00983264     -0.01154110      0.00898592       1
H              22.21540000     12.22220000    -31.62660000      0.01842340      0.01240620      0.05079180       1
O             -15.31650000     42.87470000      2.69855000      0.04550340      0.04921030     -0.08244540       8
H             -16.53450000     41.69630000      2.65856000     -0.05994760     -0.06225720      0.01492060       1
H             -14.73060000     43.45710000      4.21180000      0.00230740      0.01966170      0.06571460       1
O              10.14590000    -28.10610000     31.97610000     -0.01249120      0.09077450     -0.06297080       8
H              11.73250000    -28.87950000     32.23310000      0.03069550     -0.00736712      0.01347650       1
H              10.67980000    -26.18940000     31.06420000     -0.01831060     -0.08947410      0.04977260       1
O               3.42105000     34.57290000      1.84111000     -0.05196720     -0.00627446      0.01251830       8
H               2.06276000     34.72140000      3.15042000      0.02573820     -0.00094600     -0.00272979       1
H               2.11213000     34.23970000      0.48489300      0.03080570      0.00529540     -0.00228485       1
O              -9.47884000    -15.54250000     12.01170000     -0.05339420      0.02701910      0.04375550       8
H             -10.95230000    -16.40450000     12.90230000      0.02876140      0.01423460     -0.01880200       1
H              -8.75998000    -16.75910000     10.99230000      0.02187460     -0.03689090     -0.02849730       1
O              -5.05565000      5.59374000     15.87020000      0.02201100     -0.04297080     -0.06505480       8
H              -3.53880000      5.48707000     16.83830000      0.00690515      0.00135248      0.02449290       1
H              -4.45928000      4.22324000     14.38380000     -0.03241440      0.04573830      0.03690960       1
O              25.06380000    -14.81060000     -2.22857000     -0.04795140      0.05770720      0.06316670       8
H              23.66330000    -15.84590000     -2.40743000     -0.03435100     -0.02771540     -0.00175082       1
H              26.20280000    -15.49590000     -3.27774000      0.07078080     -0.03706250     -0.05847870       1
O              22.40890000      5.30760000     44.38260000      0.05419000     -0.02806000      0.03620430       8
H              21.28220000      4.92875000     45.75170000     -0.00778333     -0.00130479      0.00091738       1
H              24.10470000      4.37548000     45.09760000     -0.04522600      0.03484670     -0.03572950       1
O              15.40800000     27.03270000     47.77120000     -0.00942577     -0.05064310     -0.01206840       8
H              17.19900000     27.12810000     48.05830000      0.00310993     -0.00037819      0.00738880       1
H              15.09530000     25.14580000     47.23790000      0.00902722      0.04769190      0.00657785       1
O             -15.96160000      9.98888000     22.44510000     -0.04377670      0.00240891      0.01484450       8
H             -14.40500000     10.15150000     21.64130000      0.03408740     -0.00150053     -0.01225900       1
H             -15.80270000      9.71605000     24.23450000      0.01045920      0.00063137     -0.00103264       1
