192
TotEnergy=-1103.40919000 cutoff=-1.00000000 nneightol=1.20000000 pbc="T T T" Lattice="24.41548000       0.00000000       0.00000000      -0.00000100      24.41548000       0.00000000      -0.00000100      -0.00000100      24.41548000" Properties=species:S:1:pos:R:3:force:R:3:Z:I:1
O              22.69050000     -0.42440700    -31.31540000     -0.00040924     -0.00366200     -0.06870360       8
H              23.09150000      0.19318900    -29.75810000      0.01028710      0.02009690      0.05721440       1
H              21.35920000     -1.61511000    -31.22760000     -0.01366570     -0.01208200      0.00535207       1
O              51.35410000     48.48110000      8.45951000      0.01757270     -0.03786410     -0.03222810       8
H              52.22740000     47.03070000      7.34897000     -0.01890690      0.03593250      0.03668850       1
H              49.59830000     48.54430000      7.92187000      0.00220048     -0.00041361     -0.00359771       1
O              11.04510000     -0.33693100     15.62740000      0.01502080     -0.06203680     -0.00532635       8
H              11.20630000     -2.35769000     15.76300000     -0.00575319      0.05762620     -0.00653106       1
H               9.70511000      0.15636700     16.70230000     -0.00947339      0.00283257      0.01340210       1
O              -5.98944000     -7.78539000      1.31028000     -0.02404460     -0.02656920      0.03137790       8
H              -5.46287000     -6.33014000      0.51443900      0.04265500      0.03726460     -0.03534180       1
H              -7.55904000     -7.01292000      1.93320000     -0.00594558     -0.02445540      0.00353819       1
O               8.00690000     31.25340000     20.73500000     -0.06669380     -0.01577590      0.01477400       8
H               8.75902000     32.44660000     21.76620000      0.01741820      0.02462700      0.01953850       1
H               9.23815000     30.58030000     19.69700000      0.04184240     -0.01377050     -0.03405380       1
O              -3.57829000     12.32900000      9.23588000     -0.01073660     -0.01337820      0.00960268       8
H              -3.30220000     11.50080000      7.64801000      0.00463753      0.01001730     -0.00815388       1
H              -2.27010000     13.58510000      9.43501000      0.00814487     -0.00081923     -0.00546327       1
O              44.05810000     23.16040000     11.44510000      0.01561730      0.00498500      0.01637690       8
H              44.63900000     24.59010000     12.48430000     -0.01047320     -0.00661359     -0.01580730       1
H              43.44020000     23.78580000      9.84889000     -0.00584025     -0.00430110      0.00048777       1
O              -1.88196000    -29.84700000     12.72580000     -0.03977310      0.04429470     -0.01978830       8
H              -1.07690000    -30.86220000     11.47330000      0.01574790     -0.00649287     -0.00839096       1
H              -2.77983000    -28.34890000     11.75160000      0.02261740     -0.03769220      0.02943820       1
O              29.67500000    -35.01700000     18.64910000     -0.00251174      0.06345450     -0.02851880       8
H              30.40700000    -36.03700000     19.85680000      0.02418600     -0.02227600      0.03229700       1
H              30.43960000    -33.22650000     18.77040000     -0.02472980     -0.04186980     -0.00808381       1
O               6.78341000    -27.66080000    -26.38560000      0.01805480     -0.05076080      0.03925890       8
H               8.57804000    -28.60340000    -26.17910000     -0.05592130      0.02219230     -0.00174066       1
H               5.52256000    -28.57210000    -25.08490000      0.03636660      0.02510020     -0.03925330       1
O             -11.35470000      1.99986000      5.61528000     -0.00498093      0.01632450     -0.02688680       8
H             -12.83060000      1.33467000      4.57069000      0.02580540      0.01003780      0.01990050       1
H             -10.74290000      3.47855000      4.62849000     -0.01320430     -0.01928860      0.00918417       1
O             -10.60500000     30.22110000     50.13800000      0.04256670     -0.01049770     -0.01989410       8
H             -10.20170000     29.19390000     48.58640000     -0.01442430      0.00279493      0.01307770       1
H              -8.84471000     30.89350000     50.41970000     -0.03248280      0.00018106      0.00839071       1
O              14.24320000    -30.44670000    -16.93120000     -0.01086830     -0.00141744     -0.00983837       8
H              14.27490000    -32.25890000    -16.58960000      0.00387750      0.00838724      0.00549221       1
H              12.52890000    -29.89200000    -16.56250000      0.00664128     -0.00429112      0.00840171       1
O              25.23030000     15.29130000     34.61350000     -0.06305060     -0.03095580      0.08602370       8
H              26.37470000     15.44060000     33.41600000      0.07170190      0.01979470     -0.09111120       1
H              26.17270000     14.19220000     35.80800000     -0.01341300      0.01952130      0.00090817       1
O              -0.82031100      2.71991000     -2.64346000     -0.02874900     -0.11898600      0.06402590       8
H               0.11003400      4.09606000     -2.77335000      0.07183170      0.08597820     -0.00884902       1
H              -0.16158700      1.69568000     -0.98490000     -0.02950970      0.02753440     -0.06024850       1
O             -26.60490000     24.50130000     29.82650000     -0.01005410     -0.00670680     -0.01353370       8
H             -25.90580000     23.85890000     28.12570000     -0.03122960      0.01359390      0.03462790       1
H             -28.44640000     24.06760000     30.17960000      0.03648310     -0.00313755     -0.01906440       1
O             -31.84530000     12.12710000     23.46040000     -0.02514930     -0.07627050      0.00492357       8
H             -32.87920000     11.48660000     22.04270000      0.01243670      0.02558660      0.00230781       1
H             -31.20080000     13.72910000     23.57870000      0.01405020      0.05404940     -0.01596740       1
O             -19.50670000     64.14630000    -18.30990000     -0.08375150     -0.08948310     -0.04914530       8
H             -18.23730000     63.94800000    -17.23760000      0.09048330      0.01392270      0.06964780       1
H             -19.81830000     62.13690000    -18.22620000     -0.00816876      0.07130510     -0.01959800       1
O              67.25180000     20.69820000     40.67730000      0.01921440     -0.05082380      0.04798210       8
H              67.21200000     21.35350000     39.05260000     -0.00001679      0.00720292     -0.04119270       1
H              68.22670000     19.03170000     40.68310000     -0.02552560      0.04592710     -0.00504798       1
O              57.42620000    -24.03440000      4.07598000      0.01854610     -0.02030110      0.04184460       8
H              56.55940000    -23.15690000      5.47734000     -0.00153082      0.01657860     -0.01136530       1
H              56.57540000    -23.70290000      2.58176000     -0.01851680      0.01747560     -0.04142820       1
O              33.51790000     19.01510000    -14.14000000     -0.00892832     -0.03055680      0.01198590       8
H              33.24160000     17.11900000    -13.70900000      0.01124270      0.03996200     -0.01630990       1
H              33.63340000     19.81250000    -12.49500000      0.00373169     -0.00578509     -0.00843853       1
O              -9.99846000      5.66202000     62.44250000      0.03249790     -0.04807550     -0.01178160       8
H             -11.56060000      4.43048000     61.63600000      0.05330190      0.02789530      0.02305940       1
H              -8.08280000      4.76560000     62.54820000     -0.07974430      0.02843850     -0.00637837       1
O               6.59287000      2.24304000     -0.75049100     -0.00775084      0.00457541      0.01954990       8
H               6.11186000      0.56686700     -1.40094000      0.01749940      0.02333370     -0.01580360       1
H               7.16099000      3.72453000     -1.75101000     -0.00607256     -0.03272590     -0.00229111       1
O              43.89110000      5.41086000     22.16950000     -0.01958420      0.04448370      0.03576400       8
H              43.40080000      6.31624000     24.02070000      0.03348810     -0.03166720     -0.05704800       1
H              45.51700000      4.56544000     21.94240000     -0.00643703     -0.00575997      0.02492410       1
O              -2.75896000     61.17180000     28.08330000     -0.06432600      0.07281840     -0.02493630       8
H              -4.00266000     62.99760000     27.38870000      0.05465050     -0.07375420      0.02708450       1
H              -1.09597000     61.57650000     27.48210000      0.00433236      0.00753596     -0.00591352       1
O               8.51170000     38.39570000     10.38090000      0.00950175     -0.01384500      0.01316900       8
H               7.12119000     38.28560000     11.68990000      0.02641920     -0.01330750     -0.01550420       1
H              10.07280000     37.30870000     10.74850000     -0.04464730      0.02232540      0.00876232       1
O             -18.12280000     18.96650000     17.49170000      0.08637450     -0.03473190      0.12210600       8
H             -19.04650000     20.02220000     16.54180000     -0.04580920      0.05769460     -0.04315260       1
H             -17.43940000     19.92760000     19.25480000     -0.04424530     -0.02651440     -0.06380740       1
O              34.20900000     32.82200000     50.90110000     -0.02113970      0.01870200      0.00524107       8
H              35.65340000     31.78490000     50.43000000      0.00752915     -0.01495400      0.00563276       1
H              32.86210000     31.88590000     51.74810000      0.01394420      0.00577216     -0.01258360       1
O              13.34520000     35.37760000     19.46060000      0.02136860      0.09963360      0.02577970       8
H              13.95130000     36.20590000     17.89610000     -0.01115330      0.01090400      0.01244860       1
H              13.26340000     33.77520000     19.00480000     -0.01545620     -0.10942300     -0.02173620       1
O              -0.67149900    -25.76180000     24.93990000     -0.02671300      0.07513490      0.00422478       8
H              -2.18535000    -26.52950000     24.34480000     -0.01484120     -0.01214140     -0.01265960       1
H               0.48285700    -26.95470000     25.35440000      0.05217480     -0.05731180      0.01236260       1
O               1.55223000     14.33960000      0.75359500      0.06729750     -0.03439880     -0.01126800       8
H               3.35306000     13.32680000      0.63588700     -0.07908090      0.04501550      0.00157112       1
H               0.86139600     14.35870000     -0.98364700      0.01049680     -0.01131290      0.01017190       1
O               6.20220000      2.27319000     17.59460000     -0.00128442      0.02176140      0.01028780       8
H               5.19398000      1.05723000     16.71350000     -0.01314130     -0.00948616      0.00263940       1
H               5.21980000      3.01133000     18.98930000      0.00831241     -0.01482000     -0.01979360       1
O             -36.54420000     54.77620000    -30.61630000      0.00578952      0.03376760     -0.08520980       8
H             -35.44800000     54.99860000    -32.36580000     -0.04934530     -0.00893093      0.02165720       1
H             -35.08410000     54.26070000    -29.86700000      0.04217550     -0.03467990      0.05650070       1
O               6.00441000     51.98840000    -17.00160000     -0.05028250     -0.01273380     -0.04460100       8
H               7.11732000     51.65650000    -15.69640000      0.01485960     -0.01080550      0.03830870       1
H               4.40219000     50.80030000    -16.95510000      0.03640630      0.02099460      0.01927980       1
O             -35.01600000     36.81300000      2.82457000     -0.11761300     -0.02682440      0.08448220       8
H             -34.02580000     36.92780000      1.44434000      0.04954260     -0.01769330     -0.07869890       1
H             -36.81260000     35.92820000      2.54325000      0.06935930      0.02670360      0.00410551       1
O              22.47220000     31.93660000     12.64570000      0.09804850     -0.08332190      0.04958100       8
H              24.66410000     31.39080000     12.60180000     -0.09761330      0.04096150     -0.01449050       1
H              22.22520000     33.27420000     11.58310000     -0.00141467      0.04835560     -0.03676570       1
O             -13.64120000    -21.52380000     11.84540000      0.00825162      0.05553290     -0.09333870       8
H             -12.85700000    -22.21680000     10.28100000     -0.01164160      0.00506225      0.02720330       1
H             -13.59010000    -22.65490000     13.13820000      0.00371080     -0.06794270      0.05735560       1
O             -46.27060000      7.17299000     20.82660000      0.10707900     -0.07723630      0.08324790       8
H             -47.33830000      7.95272000     19.88040000     -0.09235930      0.07545070     -0.08746650       1
H             -44.54230000      7.31611000     20.20620000     -0.01054930      0.00264191     -0.00150825       1
O             -21.48530000    -16.12700000     35.27540000      0.04349010     -0.01240880     -0.02391910       8
H             -20.09650000    -17.38700000     35.70020000     -0.02219750      0.02833010     -0.00054051       1
H             -21.22690000    -15.76510000     33.39650000     -0.01503140     -0.00833053      0.03199810       1
O              15.10030000     13.12630000     32.48510000     -0.08340300      0.00839757     -0.08664960       8
H              16.70040000     12.56450000     32.63340000      0.07759430     -0.02061680      0.01627560       1
H              14.77220000     12.79440000     30.50540000      0.00435194      0.00996305      0.05515560       1
O             -21.14890000     -1.95692000     39.47080000      0.05053340      0.03714510     -0.08939860       8
H             -22.78480000     -2.21438000     39.93450000     -0.06247400     -0.00491430      0.02344070       1
H             -21.36990000     -1.39181000     37.56840000      0.01118400     -0.02251770      0.06098410       1
O              46.39330000      6.47906000     30.07160000     -0.01661600      0.00406409      0.04654580       8
H              45.82560000      6.39727000     31.85090000      0.00940389      0.03085690     -0.01091950       1
H              46.12370000      4.72444000     30.02370000      0.01015030     -0.04232380     -0.03310130       1
O             -10.45480000    -34.76540000     -8.69491000      0.02428740     -0.02202160     -0.05882240       8
H              -8.69949000    -34.23780000     -8.89237000     -0.00038794      0.00961865      0.00828693       1
H             -10.42570000    -35.83400000    -10.40590000     -0.02119980      0.02299180      0.04606340       1
O              55.69100000    -17.83200000    -10.28120000     -0.05102890     -0.05764500      0.05625250       8
H              57.05780000    -18.23210000    -11.29810000      0.03264380     -0.01160050     -0.01860680       1
H              55.35240000    -19.58160000     -9.18964000      0.01743060      0.06492690     -0.03574480       1
O              17.15490000     -1.15763000      6.79541000     -0.04946820      0.00158449     -0.03746410       8
H              15.98090000      0.40806900      6.22378000      0.02203670     -0.06368520      0.01578110       1
H              16.26110000     -2.87945000      6.28501000      0.02677960      0.06356640      0.02291500       1
O             -37.70980000     -6.25693000     46.82330000      0.01201610      0.04495580      0.00962887       8
H             -38.07110000     -8.02336000     46.46930000      0.01407120      0.01269900      0.02762870       1
H             -36.64820000     -5.60230000     48.35870000     -0.02930810     -0.05602780     -0.03475220       1
O               4.24438000    -11.28380000    -11.09910000     -0.05677110     -0.06737440     -0.20718000       8
H               4.63347000    -11.46610000     -9.55312000      0.04037120     -0.02040210      0.16979200       1
H               3.81929000    -13.38900000    -11.93160000      0.01799590      0.07212380      0.03227230       1
O              18.82600000     15.09960000     13.73650000      0.05447950      0.06657330     -0.01286780       8
H              20.18650000     16.51030000     13.01080000     -0.04602550     -0.03793590      0.03860970       1
H              18.81900000     14.10450000     12.27680000     -0.00696880     -0.02601210     -0.02096640       1
O              11.07320000     18.91840000     -9.00935000      0.02123440     -0.07731110      0.04487470       8
H              12.32180000     17.36690000     -8.76882000     -0.02345860      0.04805050     -0.02072630       1
H               9.79711000     18.17340000     -7.80683000      0.00605971      0.02948850     -0.02808090       1
O              26.54660000     58.68280000     29.99660000      0.00915905     -0.02038190     -0.05266500       8
H              24.81080000     58.28070000     29.66700000     -0.01268890      0.00432889      0.01912170       1
H              27.05600000     57.94320000     28.28680000      0.01237960      0.01070140      0.03903730       1
O              -6.06554000      7.77913000      2.23546000      0.03939730      0.03568090      0.00026731       8
H              -4.59113000      7.57657000      3.41488000     -0.02067790     -0.00769607     -0.00875811       1
H              -5.74690000      9.57251000      1.69594000     -0.01431090     -0.02523860      0.00143241       1
O              14.97560000    -26.71510000     20.27900000      0.04485650      0.00998573     -0.03063150       8
H              13.48810000    -27.62320000     20.44230000     -0.03338360     -0.02114860      0.00366891       1
H              15.63220000    -27.19900000     18.56240000     -0.00717662      0.00896886      0.02883150       1
O              -4.28611000     20.53990000     47.11340000      0.05099650     -0.03695090     -0.03515360       8
H              -3.38914000     19.68690000     45.55190000     -0.01938270      0.02600340      0.03981840       1
H              -5.91602000     20.87460000     46.54740000     -0.03803220      0.01403980     -0.01535020       1
O              37.94370000     41.67650000      2.31101000      0.00768233     -0.00016316      0.00082790       8
H              38.25270000     42.16900000      4.07230000     -0.00780248     -0.00859189     -0.00460023       1
H              37.93120000     39.76740000      2.14954000     -0.00676010      0.03265230      0.01787040       1
O              22.97720000     18.49540000    -30.23040000      0.01995430     -0.03761190     -0.00773336       8
H              23.48980000     16.67170000    -29.71210000     -0.00701247      0.03920150     -0.01283410       1
H              23.85130000     18.86260000    -31.84970000     -0.01683180     -0.00775984      0.02594570       1
O             -21.35260000     43.79860000      1.61127000     -0.01758020      0.01177800     -0.04953400       8
H             -22.00040000     42.11240000      1.16412000      0.01295120      0.00345753      0.02402930       1
H             -20.52120000     44.07790000      3.15714000      0.01126220     -0.01758110      0.02858850       1
O               5.82354000    -27.82150000     30.38790000      0.02473110      0.06318730     -0.03693070       8
H               7.22623000    -28.44440000     31.29460000      0.00622014     -0.02721890      0.02751770       1
H               6.93137000    -26.28270000     29.62220000     -0.03682600     -0.04315630      0.00728164       1
O               4.13959000     30.99510000      1.53739000     -0.00398983     -0.05253900      0.07409880       8
H               4.33137000     31.21230000     -0.15403100      0.00082965      0.00999411     -0.06188230       1
H               4.22824000     29.09010000      1.75758000     -0.00009721      0.04737520     -0.00592578       1
O             -11.59290000    -13.41230000     11.87250000     -0.00487601     -0.07253340     -0.07483590       8
H             -11.70880000    -15.42150000     12.01940000      0.01106180      0.06943740      0.00529054       1
H             -11.21380000    -13.19210000      9.83461000      0.00236051      0.00204306      0.07458700       1
O              -4.78179000      3.36046000     14.18080000      0.06365050      0.01645710      0.02093440       8
H              -3.32314000      4.63438000     13.74150000     -0.04982880     -0.02680870      0.00565129       1
H              -4.05296000      2.50440000     15.72540000     -0.01719880      0.01257620     -0.02637310       1
O              24.63090000    -10.67220000     -4.22902000     -0.00011588     -0.05612780     -0.10398800       8
H              26.20840000    -10.83430000     -5.43427000     -0.02590590      0.01742190      0.04791230       1
H              23.56620000    -12.03730000     -5.38432000      0.02301200      0.04213190      0.06023400       1
O              22.38950000      9.07099000     42.97910000     -0.00991290     -0.02452350      0.05205190       8
H              21.50320000      7.69603000     44.06060000      0.01315400      0.04057040     -0.03377650       1
H              22.22500000      8.77757000     41.23770000     -0.01050580     -0.01372660     -0.02419330       1
O              15.37280000     27.55200000     46.01120000      0.00591164      0.09044330      0.02653580       8
H              17.13330000     28.09470000     45.76060000     -0.00183775     -0.00391556      0.00683299       1
H              15.05150000     25.99030000     45.48750000     -0.01421260     -0.09145440     -0.03050430       1
O             -15.08660000     12.37830000     23.02370000     -0.05570330     -0.02914800      0.07954850       8
H             -13.84470000     12.20770000     21.87300000      0.06028510     -0.01358720     -0.05739640       1
H             -14.90110000     10.83260000     24.21620000     -0.00883376      0.03853450     -0.02507470       1
