192
TotEnergy=-1102.92958000 cutoff=-1.00000000 nneightol=1.20000000 pbc="T T T" Lattice="22.76525000       0.00000000       0.00000000      -0.00000100      22.76525000       0.00000000      -0.00000100      -0.00000100      22.76525000" Properties=species:S:1:pos:R:3:force:R:3:Z:I:1
O               8.80098000      1.36967000      5.11227000     -0.02427180      0.01528790     -0.00438974       8
H               9.89369000      0.77682400      3.78046000      0.01563350     -0.00726772      0.01470240       1
H               9.18902000      1.16831000      6.87395000      0.01485210     -0.01038860     -0.01502350       1
O               5.50496000      1.27537000     20.94790000      0.00442773      0.05452330     -0.04754150       8
H               4.93645000      0.12974900     22.05040000     -0.01013730     -0.07033600      0.06576000       1
H               3.81817000      1.88985000     20.58850000      0.00158993      0.01496680     -0.01417720       1
O               9.47391000     21.42450000     18.69690000     -0.07835140     -0.00023322      0.05805590       8
H               7.80544000     22.37620000     18.65470000      0.03035100     -0.02771130      0.01455850       1
H              10.26620000     22.19140000     17.38510000      0.04793280      0.01935230     -0.05737950       1
O              16.78920000     15.83730000     20.00450000      0.02777170     -0.08460770      0.03567850       8
H              16.97640000     13.82740000     20.60260000     -0.01794630      0.08616560     -0.02117570       1
H              15.01740000     16.42180000     20.07180000     -0.00337945     -0.00883486      0.00696661       1
O              15.67740000      5.38125000     14.68830000      0.00292361      0.04782050     -0.04425120       8
H              17.02630000      6.62599000     14.26500000     -0.01176650     -0.01858650      0.01967890       1
H              14.55130000      6.05045000     13.30310000      0.00673273     -0.02464540      0.02746430       1
O              22.40750000     14.94530000      1.37916000     -0.06802210     -0.03548920      0.05068330       8
H               1.05481000     15.99580000      1.45368000      0.02848010      0.02321300      0.01250140       1
H              21.55750000     14.72590000      3.26798000      0.04157300      0.00394381     -0.06370860       1
O               1.65008000     12.17620000     17.09570000      0.01038560      0.03965230      0.26469100       8
H               0.79279300     11.76400000     15.90060000     -0.16390600     -0.09101140     -0.20111200       1
H               2.99396000     12.65020000     16.34940000      0.15488800      0.05394740     -0.06341760       1
O               3.33130000     10.07770000     10.38590000     -0.01699660      0.00867712     -0.00544575       8
H               4.90318000      9.64138000     11.20090000      0.00617580      0.00196180      0.00533631       1
H               3.66989000     10.87330000      8.75083000      0.00273822     -0.00681171      0.00253764       1
O              10.70180000      6.27965000      4.05931000      0.07214980      0.11020000      0.06853390       8
H              10.37510000      5.48031000      2.67228000     -0.01872350     -0.04386720     -0.15927900       1
H               9.89634000      5.10927000      4.91824000     -0.05648070     -0.07505120      0.09141090       1
O              14.75670000     11.47700000      8.74399000     -0.09565220     -0.16995500      0.00546251       8
H              15.14410000     13.01300000      8.49980000      0.04259240      0.16425100     -0.02347680       1
H              12.86570000     11.26510000      7.92148000      0.06365750      0.00857982      0.01644120       1
O               0.73182400      3.45009000     19.93530000      0.06234790     -0.08081470     -0.08648450       8
H              22.24330000      4.30456000     20.57050000     -0.08591750      0.08277450      0.07358930       1
H              -0.25255600      2.63659000     18.56030000      0.02790390     -0.00893038      0.01171830       1
O              19.85430000      4.36552000      8.02767000      0.00756422     -0.03327550      0.01646760       8
H              18.80690000      2.84815000      7.99738000     -0.00095014      0.01106670      0.00536257       1
H              19.16850000      5.57195000      6.90416000     -0.00913780      0.01977340     -0.01198110       1
O              16.24480000     22.19620000     20.97160000      0.05307740     -0.02399840     -0.03447480       8
H              15.40990000      0.86921300     20.20220000      0.01171250      0.00111371     -0.00865107       1
H              17.69290000     21.63100000     19.70580000     -0.06498000      0.02699720      0.04117810       1
O              21.51440000     19.02260000     20.85960000     -0.04210900     -0.02862380     -0.05401130       8
H              20.37320000     18.88440000     19.21130000      0.04249740     -0.00158662      0.05947000       1
H              21.35770000     17.26540000     21.56820000     -0.00410300      0.02797250     -0.00373889       1
O              12.04230000     22.20000000      0.92464200     -0.06815400      0.01087770     -0.02607030       8
H              11.32420000     22.55200000     21.95830000     -0.01113390     -0.01009240      0.03041240       1
H              13.65920000     22.39100000      0.31425300      0.06796320     -0.00471855      0.00496752       1
O               4.43999000      0.21972100      8.87194000     -0.02616940     -0.01791890     -0.00748841       8
H               4.32786000     21.53490000      7.60014000     -0.00744980      0.03835680      0.02892050       1
H               2.68369000      0.90173700      9.35430000      0.03495110     -0.01925660      0.00092005       1
O               3.30906000      6.28447000      3.84401000      0.04678170      0.04086380      0.01258450       8
H               4.58761000      6.22520000      5.20989000     -0.01263950     -0.01462790     -0.01324960       1
H               2.33606000      4.83648000      4.03179000     -0.02688400     -0.02783740      0.00059593       1
O              14.06340000     18.39320000     13.12920000      0.04244380     -0.07089480     -0.12600100       8
H              13.25530000     19.81570000     13.51140000     -0.03846770      0.09052170      0.03238310       1
H              14.34540000     18.62180000     10.94560000     -0.01757510     -0.00628249      0.08981970       1
O               7.28226000     13.35290000     21.40170000     -0.09884900     -0.00511019     -0.02811310       8
H               5.45165000     12.82940000     22.07690000      0.06698960      0.01037800     -0.01384130       1
H               6.58895000     13.86010000     19.61560000      0.03904110     -0.01481000      0.04370030       1
O              17.39200000     10.34660000     18.83850000     -0.05360740     -0.01398960      0.11117100       8
H              18.16290000     10.41640000     17.33670000      0.01563150     -0.00879760     -0.07644570       1
H              15.80220000      9.32588000     19.04950000      0.03848850      0.02337540     -0.02427540       1
O              21.71010000     17.20650000     15.54860000     -0.05274260     -0.01815990     -0.00579259       8
H              -0.24160500     15.71090000     16.20390000      0.00576823      0.00672836      0.00421052       1
H              19.78800000     16.51330000     15.30660000      0.03209280      0.01888330      0.00982132       1
O               6.08308000      7.30723000     19.89920000      0.03991830      0.04402080     -0.01883550       8
H               5.59855000      8.32885000     21.26300000     -0.00401798      0.04129170      0.01776550       1
H               4.96781000      6.08302000     20.29080000     -0.04964900     -0.07128830     -0.00135260       1
O              12.43030000      0.22340500     15.02830000     -0.00389269      0.02156200      0.00793895       8
H              13.48770000      1.06569000     16.30930000     -0.01396740     -0.01278890     -0.01862840       1
H              11.14470000      1.53466000     14.60380000      0.01186610     -0.00479553     -0.00064639       1
O               6.28570000      5.29137000      8.27638000     -0.00217154     -0.00496747      0.00615516       8
H               5.96641000      6.28742000      9.74488000      0.00632468      0.01753390      0.00255787       1
H               5.67485000      3.71365000      8.94294000      0.00129978     -0.01386600     -0.01547380       1
O              17.65860000      0.37269600     16.01330000      0.06095880      0.00694144     -0.00234338       8
H              16.94410000      2.04103000     16.35980000      0.01827810     -0.01406180     -0.00938023       1
H              19.75010000      0.45987100     15.97580000     -0.06563550      0.00610716      0.00591077       1
O              14.18940000      1.01986000      6.93739000      0.01543230      0.03328860      0.12123900       8
H              13.63360000     22.22100000      6.61680000     -0.02357840     -0.07766670     -0.01999730       1
H              14.32260000      1.97503000      5.60353000      0.01475760      0.06247760     -0.10734400       1
O              21.56630000     13.11640000      6.24378000     -0.00702487     -0.01498940     -0.00559989       8
H              20.63900000     11.43130000      6.06638000      0.01089800      0.03777100      0.01256780       1
H              21.10000000     14.24280000      7.65032000     -0.00330807     -0.02327960     -0.01035750       1
O               8.58880000     20.76670000     10.26390000      0.05292930      0.07504570      0.00382775       8
H               7.06642000     21.91050000     10.37040000      0.01657300     -0.01279410     -0.00159083       1
H              10.23890000     21.88410000     10.68150000     -0.06754790     -0.04207220     -0.01346720       1
O               2.65947000      5.60433000     15.15980000     -0.03546950     -0.01141530      0.03779860       8
H               1.24955000      6.78330000     14.81720000      0.01745410      0.00185987     -0.00553359       1
H               1.95553000      4.83869000     16.78220000      0.02753420      0.01287380     -0.03413170       1
O              14.10410000      3.73703000     19.19440000      0.02057690      0.05499010     -0.05382920       8
H              14.50060000      5.13531000     17.63000000     -0.01727670     -0.05488530      0.05488350       1
H              13.01600000      4.50141000     20.44530000     -0.01027940     -0.00038798     -0.00726453       1
O               9.58022000      4.84633000     22.01460000     -0.05330030      0.00611117     -0.00741973       8
H               8.28414000      6.31574000     21.20410000      0.04102220     -0.05527490      0.01734240       1
H               8.37770000      3.34465000     22.11450000      0.02785640      0.03554890     -0.00755216       1
O              12.97870000      6.16828000      9.74875000     -0.01509270      0.01610180     -0.03825330       8
H              13.10860000      4.65178000      8.71392000      0.00449752      0.00223320      0.00853352       1
H              12.63710000      7.50491000      8.41504000      0.00891394     -0.03004950      0.03793520       1
O              13.52980000     19.26310000      7.88948000      0.18896100      0.05804420      0.08553600       8
H              15.03790000     18.04150000      7.48213000     -0.03111680      0.01822830     -0.00572831       1
H              12.24660000     18.60280000      7.25967000     -0.16990500     -0.09188000     -0.07620890       1
O               4.11083000     17.64590000      1.45047000     -0.01150930     -0.00389484     -0.04716500       8
H               4.83936000     16.33050000      2.31209000      0.02254420     -0.04683440      0.01556720       1
H               4.00029000     18.85480000      2.68962000     -0.01165010      0.05157910      0.03456650       1
O               3.89343000     11.28050000      5.51938000      0.10115300     -0.08090630     -0.00026422       8
H               3.73461000      9.35926000      5.20294000     -0.01648370      0.05664750     -0.00269265       1
H               2.43035000     12.10270000      5.54257000     -0.09448730      0.03383250     -0.00640531       1
O               2.82936000     17.16040000      7.05388000     -0.04054600      0.03522040      0.02395290       8
H               2.17996000     16.49990000      8.65070000     -0.02104090      0.01869060      0.00557119       1
H               3.96984000     15.89430000      7.00924000      0.06470100     -0.05110600     -0.02612100       1
O              11.59350000     10.70170000     19.46240000      0.08954040     -0.08507750     -0.13120800       8
H              12.15380000     11.84800000     20.46860000      0.06853700      0.11084300      0.08217360       1
H              10.12040000     10.55480000     20.10560000     -0.15540400     -0.02569090      0.05256260       1
O              22.42910000     15.51980000     10.87430000      0.03052820     -0.13424100     -0.05437640       8
H              21.94990000     16.37660000     12.28940000     -0.01470860      0.02775770      0.06224190       1
H              -0.11500800     13.41430000     11.35800000     -0.00981239      0.10357600     -0.01429320       1
O              10.54750000     11.04260000     14.41850000      0.16909600     -0.18845200      0.02369710       8
H              11.01360000     11.10850000     16.18720000      0.01109770     -0.00758523      0.00575649       1
H               9.55702000     12.20800000     14.34060000     -0.17071500      0.20638900     -0.02519140       1
O              17.22250000     10.45770000     13.48770000     -0.01124980     -0.13064400     -0.10057500       8
H              16.00830000     10.44350000     11.91480000      0.03669150     -0.00433509      0.03554250       1
H              16.89190000     11.96960000     14.01750000     -0.02463870      0.13803000      0.05567830       1
O              12.04200000     16.76140000     19.74310000     -0.06581590      0.04935610      0.05466440       8
H              11.05320000     16.45240000     21.35500000      0.02250760     -0.02264410     -0.02657570       1
H              11.12060000     18.48770000     19.82460000      0.03146440     -0.02558900     -0.03421650       1
O              19.84520000     21.65390000      2.45691000     -0.12098500      0.24803300     -0.30739600       8
H              20.06080000     21.12550000      0.61313700     -0.00220099      0.00125422      0.05266570       1
H              20.29640000     20.68590000      3.45964000      0.11357800     -0.25074000      0.23779500       1
O               2.29802000     10.62830000     21.83220000      0.03077390     -0.01418980      0.05825850       8
H               2.08318000     11.08330000     20.19340000     -0.00563215      0.01294410     -0.07656150       1
H               1.23439000     11.79780000     -0.10646400     -0.01357660      0.01774710      0.02359040       1
O              22.40610000      9.35842000     13.53910000      0.13114100     -0.00763479     -0.02865530       8
H              20.75970000      9.52568000     13.67700000     -0.11419500      0.01390560     -0.01558320       1
H               0.59057000      9.62603000     11.83200000     -0.02240700     -0.00820351      0.03542570       1
O              18.06830000     22.46970000     10.33310000      0.02579520     -0.00362287      0.02637070       8
H              17.90050000     -0.26722300     12.20300000     -0.00782566      0.00271329     -0.02393120       1
H              16.46190000     22.58330000      9.56685000     -0.01808440      0.00292745     -0.00196350       1
O               8.97257000     16.80020000     12.62440000      0.05894340     -0.03672510      0.03115950       8
H              10.85620000     17.20880000     12.63430000     -0.01990930     -0.03025840      0.02173070       1
H               8.74011000     18.31910000     11.78420000     -0.03721420      0.04677200     -0.01902010       1
O              -0.12951900      0.16862900     15.66900000     -0.00377407     -0.10843400      0.15121100       8
H              -0.33140300      0.68980800     14.11500000     -0.00302847      0.02799400     -0.12961100       1
H              -0.30716400     20.91600000     15.93800000      0.01238620      0.06858370     -0.02267830       1
O               6.02290000     14.59680000     16.27550000      0.04337560     -0.04289950     -0.05378420       8
H               6.92244000     15.72980000     15.09940000      0.00396678     -0.01339640      0.00272307       1
H               5.20355000     15.74490000     17.23950000     -0.04478740      0.05766540      0.04258180       1
O               7.24352000      8.09455000     12.86420000      0.00867262      0.01555860     -0.02026660       8
H               8.72104000      8.94542000     13.68310000      0.00724266      0.00384791     -0.01829430       1
H               6.32632000      7.89097000     14.33470000     -0.04119170     -0.00971083      0.03560860       1
O              21.61230000      7.46512000     22.49260000     -0.09940330     -0.01326150     -0.01498770       8
H               0.46035700      8.02440000     22.45620000      0.07070080      0.02215700      0.00528544       1
H              20.77530000      8.70417000     21.37940000      0.00377416     -0.01866030      0.01466340       1
O               9.56524000      4.03500000     13.67570000      0.00497156      0.04017400     -0.07780850       8
H              10.57240000      4.95573000     11.83180000     -0.04354910     -0.03296490      0.07695320       1
H               7.79476000      4.81771000     13.62290000      0.05289800     -0.02012300     -0.00259870       1
O               3.87371000     18.17220000     18.92520000     -0.05565690      0.00684947     -0.11499700       8
H               2.16575000     18.06640000     19.45830000     -0.02172630      0.00617565     -0.00244649       1
H               4.64283000     18.05730000     20.36080000      0.07432340     -0.00597454      0.12154900       1
O              16.30880000      3.94813000      2.38384000      0.12558000     -0.08319840      0.01436390       8
H              17.62260000      3.48067000      1.02458000     -0.05436450      0.02010850      0.03525110       1
H              15.02680000      4.93028000      2.01125000     -0.07608050      0.06441760     -0.04492450       1
O              18.50990000      8.93657000      5.31146000      0.01649060     -0.00094731      0.01562830       8
H              18.43610000      8.56973000      3.57888000      0.00608935     -0.01072500     -0.02727600       1
H              17.22920000     10.15000000      5.56074000     -0.02188600      0.00988444      0.01247680       1
O              22.46250000      2.59041000      3.91530000      0.20673100      0.20053000      0.12844300       8
H              21.84700000      3.02901000      5.57686000     -0.00207134      0.00536879     -0.00426479       1
H              21.48160000      1.58971000      3.34973000     -0.19289700     -0.20168900     -0.11947400       1
O               9.69154000     17.62600000      1.93748000     -0.05513240     -0.15735700      0.02778770       8
H              10.40840000     19.02350000      1.67154000      0.10042100      0.16290200     -0.03566490       1
H               8.17469000     18.19620000      2.61340000     -0.03262750     -0.00330404      0.01024800       1
O              13.62040000     13.30790000      1.71263000      0.12806800      0.08895580     -0.09521500       8
H              12.78600000     12.23180000      2.52228000     -0.09520350     -0.14405900      0.10178600       1
H              12.54040000     14.64170000      1.82974000     -0.03498460      0.05697550     -0.00349673       1
O              10.99100000     10.78810000      5.52572000     -0.04437210     -0.01286640      0.02636550       8
H               9.41917000     11.57920000      6.13824000      0.01744570      0.00464312     -0.01027290       1
H              10.38570000      8.97526000      5.34707000      0.01805000      0.02285320     -0.01504580       1
O              20.53250000     19.36940000      6.43723000     -0.09550490     -0.14934700     -0.13430100       8
H              20.96160000     20.48800000      7.40372000      0.02790480      0.20605300      0.16619600       1
H              22.05950000     18.65150000      6.58923000      0.07610650     -0.06886230     -0.01545130       1
O               0.72675600      2.41335000     11.40980000     -0.09781880     -0.03823700     -0.11276200       8
H              22.09240000      3.22941000      9.99269000      0.05243940     -0.01844080      0.06162910       1
H               1.54099000      3.65157000     12.23800000      0.03816460      0.06671580      0.04126740       1
O              16.90960000     15.29250000     15.45360000      0.06586670     -0.05853980      0.02836440       8
H              16.88050000     15.12470000     17.43390000     -0.00143602      0.01428090     -0.02819860       1
H              15.66430000     16.42170000     15.06870000     -0.04370460      0.04322200     -0.02136480       1
O              16.67420000     16.12300000      6.09973000     -0.03274060     -0.03947320      0.05807550       8
H              15.67580000     15.53620000      4.77882000     -0.00751172     -0.00536490     -0.03849070       1
H              17.92560000     17.26800000      5.78995000      0.04638990      0.03838310     -0.02499260       1
O               4.19247000     22.18490000      4.11094000     -0.13716400     -0.08557190     -0.05751650       8
H               5.46604000      0.28623200      4.56480000      0.14622400      0.08731590      0.04302490       1
H               2.83654000      0.63578000      4.21908000     -0.01255910     -0.00587370     -0.00645879       1
O               8.51726000     15.62940000      8.02135000     -0.04499650      0.00898979     -0.33038200       8
H               7.93499000     17.23810000      8.10297000     -0.02187520      0.06117810     -0.00647295       1
H               8.79096000     15.33430000      9.45366000      0.06373780     -0.07601510      0.32204700       1
