192
TotEnergy=-1102.96632000 cutoff=-1.00000000 nneightol=1.20000000 pbc="T T T" Lattice="24.73236000       0.00000000       0.00000000      -0.00000100      24.73236000       0.00000000      -0.00000100      -0.00000100      24.73236000" Properties=species:S:1:pos:R:3:force:R:3:Z:I:1
O              12.48770000     19.74040000     16.62830000     -0.03817800     -0.01727970     -0.03957070       8
H              13.15590000     20.21070000     14.91320000      0.00652985      0.00602359      0.05084680       1
H              13.23410000     20.10860000     18.23320000      0.02861620      0.00902010     -0.00606649       1
O              15.58850000     12.44520000      1.50676000      0.01029240      0.01480890      0.00115041       8
H              14.70990000     10.97010000      1.93774000     -0.00878363     -0.03564860      0.02962400       1
H              14.64800000     12.75650000      0.00709200      0.00410405      0.01997270     -0.02841760       1
O               1.95591000      9.07387000     10.02060000      0.01960290      0.10533600     -0.00835004       8
H               2.69455000      9.68835000      8.44815000     -0.00451633     -0.01172500      0.01679810       1
H               1.48755000      7.46792000      9.84595000     -0.01551020     -0.09403040     -0.01582110       1
O              10.33260000     14.24940000     17.18040000     -0.02376320      0.01987190     -0.01619100       8
H               9.18937000     13.26000000     15.92710000      0.01747650      0.03680090      0.02121540       1
H              10.47820000     16.18220000     16.93640000     -0.00408812     -0.05221910     -0.00411870       1
O               2.08799000      5.36525000      0.06009700      0.01328800     -0.00013361     -0.02585590       8
H               0.33045700      5.29203000     -0.54467800      0.00894190      0.00515795      0.02491290       1
H               2.21255000      5.12566000      1.84983000     -0.01853450     -0.00566522      0.00668262       1
O              23.84100000     23.61740000     21.80260000     -0.01251850      0.01755300     -0.00571795       8
H              23.01990000     23.64860000     23.39160000     -0.00464860      0.00684991      0.01862400       1
H              24.40290000     21.90680000     21.76480000      0.01081690     -0.01951160     -0.01235900       1
O              10.71770000      5.04033000      6.69794000      0.02033490      0.02513890      0.03417290       8
H              11.88780000      5.78412000      8.27145000     -0.03972040     -0.06282020     -0.07782190       1
H              10.57390000      3.30301000      5.82285000      0.02868080      0.02898300      0.03270890       1
O               0.05037300     20.75370000      2.86448000     -0.03956240      0.01312750     -0.00157899       8
H               1.73161000     20.56950000      3.55395000     -0.00868928      0.00661954      0.00411538       1
H              -1.18434000     21.45720000      4.14208000      0.03911470     -0.01586640     -0.01812420       1
O              12.24040000      2.05849000     22.40730000      0.00780007     -0.03941130     -0.01113800       8
H              10.64150000      1.18397000     22.79890000      0.00513505      0.02532500     -0.00664253       1
H              12.25580000      3.87251000     22.36710000     -0.03214790      0.00621215      0.00615262       1
O               7.04992000      4.11943000     17.33560000     -0.03752220     -0.10189100      0.01278260       8
H               8.02117000      2.34766000     17.57910000     -0.02298380      0.04917800     -0.00847209       1
H               5.20209000      3.31057000     17.56120000      0.06182730      0.03612200     -0.00702312       1
O               1.63239000     18.79070000     20.79390000     -0.05094670     -0.03099220     -0.03443080       8
H               2.49933000     18.16800000     22.20900000      0.02404710     -0.01104000      0.03472900       1
H               0.48405700     17.30380000     20.36470000      0.02610800      0.03517930      0.00899312       1
O              12.60580000      8.32602000      2.71874000      0.00655028     -0.03896810      0.00310857       8
H              12.33690000      7.69666000      1.00667000     -0.00907524      0.01292470     -0.00145392       1
H              12.30730000      6.70694000      3.64214000      0.00159102      0.03147260      0.00450445       1
O               7.99246000      8.58280000     18.77780000      0.02131060      0.02725470      0.05355010       8
H               7.78337000      6.80688000     18.75350000     -0.01110500     -0.01928090     -0.01869490       1
H               7.74312000      9.42442000     17.25350000     -0.01044520      0.00122357     -0.03010200       1
O              20.89160000     10.06050000      2.56852000      0.00965556     -0.11475600     -0.14522000       8
H              21.51930000     10.43840000      3.96670000      0.07320940      0.05341640      0.17156600       1
H              19.60060000     10.97040000      2.07517000     -0.08946070      0.06995830     -0.02617040       1
O              10.71200000      6.94771000     23.07550000     -0.04703370      0.03786340     -0.02471580       8
H              10.60490000      8.08492000     21.53830000      0.00438803     -0.02337010      0.02469960       1
H               8.94786000      7.41548000     23.83990000      0.04633070     -0.01227590     -0.00696233       1
O               3.50024000     22.45310000     18.01390000     -0.01300050     -0.00507058      0.00145405       8
H               3.16789000     20.68360000     18.77280000     -0.00623910      0.05221710      0.00040203       1
H               2.55744000     23.98650000     18.71280000      0.03027850     -0.05212620     -0.00950566       1
O               7.27226000     24.34530000     23.59250000      0.13202400      0.00874975      0.10909100       8
H               6.90529000     24.86310000     25.34480000     -0.02228390     -0.01104810     -0.02693770       1
H               6.12811000     24.28200000     22.43790000     -0.11192200      0.00688888     -0.08957950       1
O              13.90050000     22.73380000     12.43780000     -0.01100090     -0.05223040     -0.11304500       8
H              13.01660000     21.17210000     11.16570000      0.03501990      0.07440940      0.05557200       1
H              14.83220000     23.70820000     10.81130000     -0.03335280     -0.01867470      0.05945060       1
O               1.99279000      3.69637000     10.14120000     -0.04328190     -0.02713690      0.04700330       8
H               3.49335000      3.61147000     11.24790000     -0.02519710     -0.00245452     -0.01135460       1
H               0.36441400      2.89206000     11.11670000      0.06834640      0.02881730     -0.02939230       1
O              11.30380000     21.44880000      7.31677000     -0.01030730      0.00551824      0.02232160       8
H              12.46990000     21.35850000      5.88780000     -0.02065800      0.01630640      0.00196522       1
H              10.36530000     23.07540000      7.47436000      0.03132300     -0.02957520     -0.01741580       1
O               9.03956000     19.59650000     23.81790000     -0.07089350     -0.00235109     -0.00206365       8
H               7.43324000     18.26470000     24.10890000      0.05845400      0.06123930      0.00212452       1
H               8.21410000     21.41460000     23.47840000      0.02075250     -0.05659970      0.01401810       1
O               7.04972000     11.41010000     14.27700000      0.06347990     -0.07316020      0.00710805       8
H               7.63058000     10.21390000     12.88430000     -0.02356260      0.03878520      0.02195410       1
H               5.98849000     12.66500000     13.79090000     -0.04265190      0.03893190     -0.03509690       1
O               6.49297000      8.81991000      0.79145600     -0.00481661      0.03551200      0.05613270       8
H               5.27458000      7.55677000      0.52514600     -0.02569030     -0.01822920     -0.00831532       1
H               5.99923000      9.50047000      2.63333000      0.02116850     -0.02738780     -0.05250840       1
O               5.08478000      0.11738100      3.64456000     -0.02807590     -0.00636346      0.04217050       8
H               3.77002000      1.42202000      3.45481000      0.01005890     -0.00892415      0.00246677       1
H               4.33733000     -0.90681300      5.14633000      0.02037680      0.01731220     -0.04366230       1
O               4.63027000     16.64180000      0.09394000     -0.00686702     -0.02151570     -0.00247775       8
H               3.60769000     15.68430000      1.45495000      0.03123300      0.01613270     -0.03828370       1
H               5.51012000     15.47940000     -1.23438000     -0.03101930     -0.00272653      0.03811360       1
O               3.48036000     15.16460000     10.06710000     -0.11227800     -0.01219150      0.07104880       8
H               1.52524000     16.20710000     10.97090000      0.10277100     -0.03674680     -0.05910320       1
H               4.63830000     16.26690000      9.37540000      0.02009300      0.04428680     -0.01414910       1
O              10.20800000     13.42090000      4.41470000      0.03902900      0.00690896     -0.06215260       8
H              11.98570000     13.42340000      5.05301000     -0.03363300     -0.00639986     -0.00775295       1
H              10.52290000     13.42550000      2.46368000     -0.01175290      0.00027570      0.06265700       1
O              22.88060000      3.09787000     14.23640000      0.00111070     -0.00003120      0.06117380       8
H              23.24370000      4.89648000     14.48310000      0.00277694     -0.01038530     -0.00322228       1
H              22.53530000      2.39772000     16.14230000     -0.00167956      0.01714600     -0.05938460       1
O              21.83260000      6.07638000     -0.27959600     -0.07763060     -0.02212010      0.01501330       8
H              20.16510000      4.91412000     -0.12645300      0.06135890      0.04523640     -0.00551697       1
H              21.40050000      7.68633000      0.73582300      0.01208260     -0.03326660     -0.01248530       1
O              17.46060000      5.17893000     14.74410000      0.02105460     -0.00487513      0.00644953       8
H              19.36110000      4.91626000     14.86520000     -0.05433350     -0.01187040      0.00392826       1
H              16.33730000      3.91673000     15.75360000      0.03391800      0.02294270     -0.01608120       1
O              12.96610000     21.28420000      2.18119000     -0.18047900      0.14460700     -0.01355780       8
H              14.01370000     20.12210000      2.06732000      0.14634800     -0.16878700     -0.01966770       1
H              11.44120000     20.66030000      1.04636000      0.03027140      0.00901231      0.02529840       1
O               3.39598000     20.72640000      6.43007000     -0.02130010      0.11137300     -0.04004080       8
H               4.87699000     19.98020000      6.67701000      0.08793510     -0.06014550      0.01602670       1
H               2.07932000     19.84520000      6.98569000     -0.06313090     -0.05102100      0.03573520       1
O              16.04230000      3.89116000     24.79110000      0.00730297      0.05182780      0.01140270       8
H              14.92890000      2.60819000     23.96670000      0.00052553      0.03455290      0.01026140       1
H              15.48040000      5.82399000     24.89560000      0.00758401     -0.08378730     -0.00931192       1
O              21.83130000      6.02355000      6.96989000     -0.03000960      0.06915610      0.03574240       8
H              22.67190000      7.53013000      8.01361000     -0.03718460     -0.05477170     -0.04031040       1
H              19.94560000      6.48770000      6.77540000      0.05763890     -0.01016400      0.00726363       1
O              18.51910000     10.38370000     15.76660000      0.00296507     -0.02801050     -0.01164160       8
H              19.21990000     10.01490000     17.44310000     -0.00972911     -0.00436374     -0.00866301       1
H              18.01550000      8.67279000     15.02210000      0.01118610      0.03099180      0.02539320       1
O              14.75060000     21.53280000     20.92200000      0.02567940      0.04010870      0.04752030       8
H              16.35470000     21.52270000     22.14800000     -0.06858260      0.00504888     -0.04530270       1
H              13.65030000     23.12770000     21.19730000      0.04430450     -0.04542520      0.00175508       1
O              11.08890000      6.22557000     13.72400000      0.01798080      0.04580960      0.05778350       8
H              10.21630000      5.46240000     15.28120000      0.02334010      0.02701320     -0.04146070       1
H              12.25190000      7.94119000     14.34990000     -0.04832390     -0.05873720     -0.00811895       1
O               8.72863000     23.99020000     17.90400000     -0.04879560     -0.08039390     -0.02946890       8
H              10.00990000     22.66190000     17.51690000     -0.00646770      0.02297850      0.00292662       1
H               7.05279000     22.79630000     17.38390000      0.05308380      0.05984360      0.02751580       1
O              14.87050000      1.59230000     17.40180000      0.00494305     -0.00887541     -0.02967480       8
H              13.79780000      2.03473000     18.85470000     -0.00272935     -0.01885530     -0.02425630       1
H              14.24090000      0.47104100     15.95790000     -0.00181438      0.02506010      0.04628740       1
O               6.24481000     12.84030000     22.08710000      0.06576980     -0.00357971     -0.06692480       8
H               6.01871000     11.23700000     23.04360000      0.01465440      0.01500190     -0.01597760       1
H               7.83107000     12.69740000     20.53120000     -0.07594650     -0.00314162      0.07779740       1
O              17.12250000     24.06480000      4.08836000     -0.00684123     -0.11841500      0.01769200       8
H              16.04980000     22.60680000      3.24958000      0.03141540      0.05476650      0.02866560       1
H              16.63650000     25.48130000      3.30212000     -0.02291170      0.07128520     -0.04498400       1
O               2.64351000      2.42108000     19.97990000     -0.04929360     -0.03306870     -0.00513531       8
H               3.05032000      3.80166000     21.03120000      0.00037480      0.01180190      0.01988620       1
H               0.97685700      1.62200000     20.60890000      0.04665490      0.02618970     -0.00545825       1
O              20.49470000     -0.36733000     11.39030000      0.05155050      0.02603680      0.05211150       8
H              21.25390000      0.98744800     12.67460000     -0.02757150     -0.03997990     -0.04703170       1
H              18.80050000      0.10012000     11.12130000     -0.02033740      0.01165680     -0.00470944       1
O              20.42540000      1.30018000     18.13810000      0.08679860     -0.02070110      0.08150030       8
H              21.47860000      0.50725900     19.95750000     -0.05250000      0.02185040     -0.08077300       1
H              18.71480000      0.81985700     18.03860000     -0.02368380     -0.00920426      0.00595910       1
O              22.88660000     13.77080000     15.72540000     -0.02112990     -0.00612671     -0.03914060       8
H              21.52410000     12.47020000     14.99670000      0.03795090      0.05402860      0.01393930       1
H              23.35890000     15.25190000     14.56780000     -0.02546330     -0.04802480      0.02778920       1
O              15.99730000      1.28111000      9.36541000     -0.01413870      0.07171170     -0.07555810       8
H              15.28910000      3.21664000      9.41250000      0.02026950     -0.06439630      0.01097630       1
H              16.30940000      1.09945000      7.41195000     -0.00805927     -0.00635541      0.06031390       1
O               7.85535000      7.91723000      9.96568000     -0.00237027     -0.00378146      0.00495893       8
H               8.74549000      7.00121000     11.30550000     -0.00017086     -0.00024262     -0.00547029       1
H               8.11537000      6.97480000      8.39991000      0.00559091      0.00165538      0.00718898       1
O              22.66600000     13.14510000      7.86565000     -0.00793941     -0.03454480     -0.02763080       8
H              22.46800000     14.88170000      8.22684000      0.00760535      0.01602230      0.01784220       1
H              24.03530000     12.36010000      8.74707000      0.00245563      0.01093610      0.01248900       1
O              14.74950000      6.58445000     10.08600000      0.05400450      0.01872540      0.04464420       8
H              13.23290000      7.33255000     10.86250000      0.02566510     -0.00965404      0.00289486       1
H              16.31480000      6.81089000     11.46180000     -0.07256460     -0.01643370     -0.04614860       1
O              13.51870000     13.98440000     21.60590000      0.01680750     -0.04014730     -0.03905070       8
H              13.48550000     13.24910000     19.75910000     -0.01424870      0.04392110      0.06839310       1
H              12.51940000     15.43890000     22.02450000     -0.00395549     -0.00044577     -0.02443030       1
O               6.21204000     10.54140000      5.82856000      0.01998200      0.02453630     -0.00600447       8
H               7.73891000     11.68200000      4.81253000     -0.03917520     -0.03775400      0.07003250       1
H               6.18307000     10.31590000      7.77821000      0.02616970      0.01478170     -0.06034970       1
O              20.93130000     18.63950000     24.32920000     -0.05831030     -0.04109910     -0.05217400       8
H              21.66030000     17.16610000     23.48200000     -0.02315090      0.00088445     -0.00795836       1
H              22.34140000     19.14590000     25.06980000      0.08579390      0.04603160      0.06226350       1
O              13.41150000     11.00780000     15.18800000      0.02810250      0.01328590      0.01555400       8
H              15.27310000     11.49580000     15.47990000     -0.04458870     -0.01650490     -0.00500504       1
H              12.31040000     12.17530000     16.23210000      0.02212000     -0.01187510     -0.02077190       1
O              24.05550000     19.87460000     14.82700000     -0.03071000      0.01134690     -0.00730040       8
H              25.41390000     20.53040000     15.74390000      0.03795900      0.00292769      0.01510380       1
H              22.97720000     21.35760000     15.00360000     -0.00748076     -0.01533090     -0.01149290       1
O              21.12170000      9.32164000     20.43030000     -0.02090590      0.20744300     -0.15188300       8
H              22.71930000      9.43052000     19.54690000     -0.00576497      0.00948155     -0.00204810       1
H              21.40120000      8.04886000     21.25200000      0.02897660     -0.21296200      0.14988400       1
O              23.38290000     17.77790000     10.00210000     -0.06771460     -0.12789800     -0.32982900       8
H              23.69520000     18.19660000     11.36650000      0.07255220      0.11294800      0.36215300       1
H              22.76650000     19.22180000      9.19434000     -0.01362810      0.02259460     -0.02810970       1
O              10.44410000      0.74567400      3.99682000     -0.05087390      0.01468970      0.01224870       8
H              11.23970000     -0.07255500      2.57821000     -0.00886193     -0.00228247      0.00614695       1
H               8.48749000      0.63851000      4.05939000      0.04613830     -0.00641522     -0.01476390       1
O              16.71510000     17.78980000      2.19734000      0.00005135     -0.02988280      0.01058910       8
H              18.37510000     18.23820000      1.43811000     -0.01442840     -0.01863710      0.00430621       1
H              16.56250000     15.89660000      2.51129000      0.00962814      0.04657200     -0.01469310       1
O              21.57850000     21.89260000      7.17660000     -0.03162510     -0.05051210     -0.17626300       8
H              21.56550000     22.31640000      8.73863000     -0.01155180      0.06207930      0.14903700       1
H              19.87100000     22.25670000      6.38717000      0.03940160     -0.00450111      0.02293220       1
O              22.19440000     14.90790000     20.86180000      0.06383260      0.17101200     -0.03296160       8
H              21.58670000     13.44330000     20.79330000     -0.07002600     -0.18389000      0.01892490       1
H              22.02620000     15.18580000     19.01780000      0.00819550      0.01128740      0.01410610       1
O               1.71654000     13.71370000      4.17874000     -0.03423970     -0.08780090      0.07793480       8
H               2.49851000     11.86270000      4.87815000     -0.02054750      0.08614470     -0.03715750       1
H               0.01235900     13.65050000      5.45805000      0.06130150      0.00963041     -0.05158290       1
O               7.44552000     17.97530000      6.89940000     -0.05232780     -0.08006120     -0.01743460       8
H               7.42762000     16.08190000      6.24089000      0.02060800      0.07722770      0.02145300       1
H               8.96619000     18.83470000      7.19914000      0.03844670      0.00167541     -0.00362365       1
O               1.14628000      3.63816000      5.04556000     -0.02115920      0.00427109      0.06006780       8
H              -0.77106700      4.05362000      5.27907000      0.05888020     -0.00936324     -0.00473976       1
H               1.82845000      3.53122000      6.96546000     -0.02732520      0.00390438     -0.06224980       1
O              -0.03001000      8.41090000     14.74920000     -0.03866010     -0.12961700      0.00022554       8
H               1.23490000      8.65651000     13.62160000      0.05513760     -0.01568810     -0.05848180       1
H               0.01642800      9.96999000     15.20410000     -0.01928410      0.14461200      0.06309830       1
