192
Lattice="24.47592 0.0 0.0 0.0 24.47592 0.0 0.0 0.0 24.47592" Properties=species:S:1:pos:R:3:force:R:3 TotEnergy=-1103.49397 cutoff=-1.0 nneightol=1.2 pbc="T T T"
O       20.51580000       2.72956000      16.93094000      -0.09429530      -0.05423300      -0.02503750
H       21.21230000       2.75956000      18.49804000       0.04177620       0.00890324       0.05848580
H       18.82490000       1.66788000      17.40044000       0.05188160       0.03840910      -0.03340790
O       22.70748000      19.33678000      11.68320000       0.05770770      -0.00707380      -0.03891640
H       24.38998000      18.39288000      11.28850000      -0.05117850       0.01688060       0.01979290
H       22.47908000      20.23568000      10.03640000      -0.00670717      -0.00878380       0.01798170
O        8.87452000       1.41836000      16.16700000      -0.02109710      -0.00570333      -0.00000262
H        9.62565000       0.27839400      14.94270000      -0.00200577       0.00547779       0.00646177
H        7.01518000       1.27791000      16.01820000       0.02385020       0.00273041      -0.00642365
O       18.97568000      14.82130000       0.05107000      -0.04079010       0.05685970      -0.06827820
H       19.28859000      16.71058000      24.38733400       0.00088751      -0.03844030       0.00664878
H       19.78692000      13.90512000       1.24571000       0.04591910      -0.02036640       0.05959740
O        6.65026000       7.65828000      20.32620000       0.02507900       0.00901421      -0.00731983
H        6.96528000       9.34588000      19.56220000      -0.00032354      -0.02457570       0.00653913
H        8.22684000       6.56978000      20.17800000      -0.02426410       0.02297450       0.00566148
O       23.08140000      13.31660000       8.41690000       0.04792030       0.05193810      -0.00137465
H       23.00101000      12.71580000       6.64043000       0.00672688       0.01416310       0.01775850
H        0.24913400      14.83770000       8.75861000      -0.05852600      -0.07069880      -0.01635840
O       12.47798000      22.74760000      12.81420000       0.03000160       0.09865340      -0.00170503
H       13.69858000      22.97890000      11.49480000      -0.00478205      -0.00736834      -0.00715790
H       11.97678000      21.13610000      12.94140000      -0.02390050      -0.08792940       0.00542746
O       24.12029800       0.20452000      12.95260000      -0.02503420       0.00942753       0.00272763
H       24.15779000      22.85344000      12.71100000      -0.01761870       0.01246910       0.00020195
H       22.40096000       0.89122000      13.32130000       0.03249820      -0.02611130      -0.00120300
O        7.84978000      12.44064000      17.48480000       0.02336280      -0.06564920      -0.00059515
H        9.65808000      12.62114000      17.52030000       0.01663120      -0.02500750       0.00790953
H        7.71108000      14.12844000      17.39900000      -0.03945220       0.08986910       0.00089381
O        6.35199000      21.20634000      22.74674000       0.02704840      -0.00321349      -0.00981902
H        8.12958000      20.57424000      22.99964000      -0.03489990       0.00056089       0.00223974
H        5.14895000      20.53364000      23.91664000       0.00501293      -0.01368620       0.00809760
O       13.09572000       3.02218000       4.56001000      -0.03136960       0.00108432      -0.05127360
H       11.08262000       2.87309000       4.66323000       0.06340740       0.00427986      -0.01075050
H       13.71272000       3.27014000       2.64675000      -0.03053880      -0.01148380       0.06345130
O       14.06792000      11.89188000      23.88878000       0.03880120      -0.00211939      -0.02174600
H       14.96807000      10.31358000      23.72898000      -0.01802350       0.00224257       0.00624014
H       12.68232000      11.76698000       0.51556000      -0.02450190      -0.00816591       0.02322580
O       14.63350000      19.12314000       7.17992000       0.07389510       0.01417810       0.05545010
H       16.22320000      18.06694000       7.87962000      -0.05746800       0.01375230      -0.03813880
H       13.50370000      18.23614000       6.19282000      -0.02301230      -0.03144210      -0.02554040
O        2.60618000      15.45920000      10.45118000       0.06786480       0.01906930       0.05118900
H        4.03928000      16.81100000      10.59768000      -0.03396720      -0.03472970      -0.01573630
H        3.36638000      14.17940000      11.81358000      -0.02934820       0.02482340      -0.03901090
O       23.63426400       2.38395000      22.75753000       0.04400170      -0.00759443       0.00574417
H        1.00143000       2.64704000      22.71063000      -0.01728180       0.01452220      -0.02010250
H       23.83974400       0.92465700      23.81102200      -0.02652600      -0.01422800       0.01031720
O       21.66154000      22.68500000       7.44568000      -0.06786700       0.01563030       0.09373140
H       21.81674000      22.55420000       5.72918000       0.00164353      -0.00620071      -0.06556230
H       19.67744000      22.97500000       7.93498000       0.06001340      -0.01060200      -0.03094800
O       18.99924000      10.61440000      21.49470000       0.19072300      -0.05996090      -0.01020760
H       17.95054000      10.06640000      20.40000000      -0.11135400      -0.05506860      -0.11655400
H       18.20524000      11.51560000      22.54370000      -0.07920610       0.11480800       0.11563500
O        9.90652000      12.20236000       2.56892000       0.02369880       0.02554530      -0.00349284
H       10.01192000      11.97856000       4.34882000       0.00042954      -0.00860113       0.01485480
H        8.78422000      10.97066000       1.92912000      -0.02592820      -0.01684160      -0.00289947
O       16.25016000      23.89370000      16.48268000      -0.01242340      -0.00004442      -0.00776740
H       14.88036000      23.83480000      15.19148000       0.01138080      -0.00238276       0.01658330
H       17.19096000      22.33630000      16.25678000       0.00263287      -0.00342739      -0.01373860
O        7.93756000       2.13252000       5.51125000      -0.01600720       0.00226719       0.05717420
H        7.07746000       2.65742000       7.16745000       0.03383830      -0.00896620      -0.03454390
H        6.56486000       2.25672000       4.36416000      -0.00278763       0.00743877      -0.01981080
O        7.63438000      17.67630000      10.11802000       0.00414669      -0.02481130      -0.01753040
H        8.20028000      16.09610000       9.16062000      -0.01341330       0.02665280       0.01910560
H        8.62378000      17.71790000      11.72112000      -0.00387764       0.00549742      -0.00949315
O       16.04594000       8.46404000      12.73106000      -0.02168400       0.00410932       0.00363387
H       15.30547000       7.08570000      11.86236000      -0.03265040      -0.01085590      -0.01436800
H       17.55552000       7.59944000      13.01356000       0.05761010      -0.00048369       0.01284570
O        4.92809000       1.43079000      22.61686000      -0.02116140       0.10824700      -0.02520610
H        5.50332000      24.33543100      22.88988000       0.03642360      -0.08212370       0.01128950
H        6.30616000       2.44874000      21.87268000      -0.01112150      -0.01721680       0.00813637
O       19.82578000       5.41093000      23.51810000      -0.02596130      -0.04639580       0.05927390
H       19.16238000       6.78312000      22.75870000      -0.01328830       0.06188270      -0.03768710
H       21.46348000       4.96792000      23.06780000       0.03638930      -0.01216730      -0.01690030
O       22.29974000      12.17256000       2.85338000       0.01464590      -0.07817580      -0.02552350
H       21.81344000      10.15426000       2.70148000       0.02051470       0.07914020       0.01656280
H       24.08253100      12.36596000       2.02678000      -0.04153700      -0.00615996       0.03379910
O        9.33359000      13.00908000       8.21575000      -0.03471090      -0.03205420       0.06122640
H        8.20803000      11.76668000       9.58010000       0.05466470       0.05114270      -0.06111300
H       10.85730000      13.70768000       9.04856000      -0.01562600      -0.02548100      -0.00124963
O        6.83972000      18.02230000      18.13890000      -0.08009440       0.00566210      -0.05725850
H        4.96112000      18.48230000      17.30380000       0.08438820      -0.01364850       0.03825970
H        6.64782000      18.54770000      19.83920000      -0.00120424       0.00816136       0.01531510
O        5.88338000       9.17688000       1.11756000       0.00965986      -0.01217680      -0.00446900
H        6.47778000       8.64308000      23.91568000      -0.00939968       0.01036110       0.00237499
H        5.54428000       7.41058000       1.83926000      -0.00239809       0.02015840      -0.00625656
O       14.92560000       8.84748000      18.20790000       0.11488800      -0.08337950      -0.06902530
H       15.61810000       8.88688000      16.29830000      -0.03066610      -0.00489647       0.06629470
H       13.75400000      10.01868000      18.24050000      -0.08093570       0.08542370       0.00303992
O       23.10082000      21.98784000       2.05928000      -0.00029097      -0.07179160      -0.01653710
H       21.65654000      20.93684000       1.19588000       0.04187440       0.03480980       0.01754190
H        0.06256400      20.58584000       2.13108000      -0.04020590       0.04241250      -0.00120888
O        2.46102000      13.23660000       1.28914000       0.07345750      -0.04764370       0.04924120
H        3.90026000      11.71030000       1.40667000      -0.04656690       0.04339050      -0.00869466
H        1.54667000      12.96650000      24.29737400      -0.01046460       0.00278774      -0.05056260
O        3.87308000       2.67732000      14.28670000      -0.01689740       0.02265150       0.02668480
H        2.45047000       2.12622000      13.28080000       0.00200201      -0.00802581      -0.00293276
H        2.98120000       3.68221000      15.64030000       0.02288560      -0.01530970      -0.01691800
O        9.92014000       3.91076000      20.82734000      -0.05650050      -0.01534880      -0.06432010
H        9.65174000       2.95466000      19.12084000       0.01828340       0.02015270       0.04242840
H       11.36704000       3.33486000      21.62464000       0.03900150      -0.01028220       0.01510070
O        2.86043000      23.93728000       8.79712000       0.03601060       0.00405392      -0.01848830
H        4.09006000      23.38758000       7.43832000      -0.03484220      -0.00221315       0.02488660
H        1.14245000      23.45568000       8.47932000       0.00173714      -0.00159150      -0.01155210
O       16.20364000      11.03888000       4.82512000      -0.05454930       0.09288920      -0.05247760
H       16.32844000      11.69328000       3.01745000      -0.00708429      -0.01420740       0.04494420
H       17.21374000       9.68648000       4.82377000       0.05820660      -0.07366020       0.00420779
O       23.80820000      10.11158000      12.66620000       0.01307760      -0.02040770       0.03949030
H        0.98118000      10.60428000      13.24930000       0.00335350      -0.00769467       0.01426930
H       23.77060000      11.23098000      11.33740000      -0.02258230       0.03003150      -0.05549850
O       13.31232000       4.18332000      10.16660000       0.04341610      -0.05931100       0.03848590
H       13.27052000       4.49062000       8.45341000      -0.00655786       0.01815900      -0.05505420
H       14.51022000       2.63172000      10.05160000      -0.03598390       0.04186290       0.01151590
O        2.13314000       5.07157000      19.12430000       0.02793420      -0.05735860      -0.00391590
H        1.10304000       6.42398000      19.01030000      -0.05452120       0.05591010      -0.01124830
H        3.58644000       5.86588000      19.79860000       0.02819130       0.00499428       0.00502087
O        5.66572000       8.70902000       9.45548000      -0.00562599       0.03120870       0.00504395
H        6.41192000       7.09162000       9.73878000       0.00897031      -0.01906380       0.00517739
H        4.49092000       8.53502000       8.11448000      -0.00759350      -0.00371869      -0.01022600
O       17.71330000      15.09960000       7.73418000       0.05226410       0.01806110       0.05535440
H       19.52780000      14.70980000       8.51548000      -0.05252410       0.00081274      -0.04207980
H       17.19580000      14.03320000       6.36578000       0.01051590      -0.01920150      -0.00161822
O        3.07352000      21.92523000      17.29428000      -0.02629210      -0.01065740      -0.03363520
H        3.96582000      22.95932000      18.44348000       0.00494835       0.01428500       0.00818654
H        2.40382000      22.94164000      15.87018000       0.01612020      -0.00375493       0.02590000
O       21.70548000       3.74631000       7.85778000      -0.00860056      -0.00588128       0.06326570
H       21.57368000       4.67247000       9.56318000       0.00188588      -0.01404380      -0.04120090
H       21.53968000       1.95836000       8.45198000       0.00650718       0.02461490      -0.02239820
O       15.03910000      15.86834000      15.64281000      -0.00744445      -0.00729640      -0.00478699
H       16.52786000      16.84424000      15.35880000       0.01305260       0.01109340      -0.00366464
H       14.99872000      14.43884000      14.46642000       0.00151478       0.00263606      -0.00163318
O        7.63496000       4.38562000      10.61142000       0.02916850      -0.00712265      -0.02085580
H        9.44026000       3.92502000      10.65632000      -0.01611300       0.00659587       0.00376925
H        6.76886000       3.43712000      11.85232000      -0.01097210      -0.00711534       0.01969720
O       16.26630000      23.69197100       7.88542000      -0.05187500       0.00281909      -0.06164060
H       15.51910000       0.32784200       6.43052000       0.02665200      -0.01509160       0.04202430
H       15.24460000      22.08512000       7.26293000       0.03062390       0.01566280       0.02603830
O       11.02214000      18.71306000      23.02898000       0.00019840       0.03263290      -0.00156469
H       11.57384000      17.05309000      22.95248000       0.00869458      -0.04551720      -0.03037050
H       11.23324000      18.75737000       0.33136000      -0.00562630       0.01608460       0.03155070
O        4.19897000      11.49352000      13.33222000      -0.08011960       0.07368940      -0.18167800
H        4.72067000      11.05952000      14.74713000       0.07850790      -0.05869700       0.18718300
H        4.32343000      10.20052000      12.04782000       0.01508680      -0.00939745      -0.00372663
O       18.82890000      19.41660000      15.44340000       0.03750480      -0.00153048       0.02733580
H       20.08710000      19.26880000      14.07510000      -0.00906093       0.00218667       0.00619966
H       19.98500000      19.31020000      16.98110000      -0.02226780      -0.00224390      -0.03353490
O       10.43430000      18.21940000      14.26342000       0.06935640      -0.04180880      -0.08020570
H       11.94510000      16.83780000      14.07962000      -0.05631730       0.05343870       0.03751870
H        9.49364000      18.52100000      15.71061000      -0.01195730      -0.01300350       0.04866840
O        2.21498000       4.54936000       6.25128000       0.00677938      -0.05532420       0.03912670
H        0.32958000       4.29046000       6.33578000       0.03147910       0.00006237       0.00829177
H        2.98818000       3.07446000       7.44608000      -0.04131980       0.05045020      -0.04035400
O       20.10625000       7.42972000       4.22853000       0.02456680      -0.06073130      -0.06776380
H       20.73011000       6.04371000       5.31834000      -0.00995576       0.01855030      -0.00147213
H       20.35750000       6.45630000       2.40850000      -0.01960580       0.03645860       0.05875760
O       15.73160000      22.64934000      21.30550000      -0.02487950      -0.02045990      -0.03241840
H       14.21250000      21.62174000      21.67650000       0.01903790       0.00854278      -0.00125155
H       15.63570000      22.84394000      19.35390000       0.00170838       0.00761390       0.04045130
O       19.97701000      19.47230000      22.96908000      -0.00641267       0.02974960      -0.07290850
H       21.05793000      19.37130000      21.28698000      -0.02188280       0.00100291       0.05348320
H       18.53550000      20.55160000      22.24568000       0.02278280      -0.02008520       0.02599920
O       10.24198000      17.52808000       3.72676000      -0.03041740      -0.03244600       0.00182264
H        8.71768000      18.57558000       4.15356000       0.02237480      -0.02412490      -0.00370822
H        9.70678000      15.63258000       3.56753000       0.01093550       0.05649270      -0.00037480
O       23.13240000      19.14250000      18.76944000       0.06227690       0.00436814       0.01605110
H       24.23200000      18.16680000      19.98194000      -0.03101000       0.00060201      -0.02058640
H        0.08328000      20.26660000      18.13954000      -0.03096360      -0.00843174       0.00669376
O        2.54062000      18.45778000       1.90672000       0.04104290      -0.01077920       0.04894690
H        2.30412000      16.63708000       2.01982000      -0.01074410      -0.00783952      -0.02074490
H        3.81542000      18.44528000       3.34183000      -0.02518340       0.02055930      -0.02945380
O        6.65030000      20.94754000       5.92378000       0.03770210      -0.01847210       0.05446080
H        7.04524000      19.93994000       7.71158000      -0.00946191       0.02992040      -0.05445460
H        8.14298000      22.08134000       5.71418000      -0.02757380      -0.01319510       0.00629812
O        4.90542000       4.66668000       2.07289000      -0.00988401      -0.02751120      -0.00406378
H        4.74351000       3.53348000       0.56497800      -0.00158214       0.00968144       0.02070650
H        3.62332000       4.27468000       3.39525000       0.00382788       0.00862173      -0.01079400
O       14.28342000      12.97242000      11.55990000      -0.01380630       0.00478864       0.01161440
H       14.74342000      11.20312000      11.86100000       0.00939998       0.01091340      -0.00788078
H       15.63814000      13.88252000      10.75820000       0.00447016      -0.01036530      -0.01287320
O       20.80847000       6.20957000      13.33080000      -0.00311860      -0.05544090       0.01854360
H       22.51717000       6.87119000      13.27810000      -0.00968401       0.00787178       0.00262453
H       20.75141000       4.64953000      14.55840000       0.00399294       0.04961720      -0.02499190
O       24.05740000      14.32232000      21.62687000      -0.06696790      -0.04437690       0.02610640
H       24.29930000      12.74432000      20.61572000      -0.00292396       0.02604190       0.00951046
H       22.21640000      13.92722000      22.56213000       0.06569780       0.02243620      -0.03697600
O       23.48790000       9.98960000      18.35178000       0.03052950      -0.07333750       0.11007200
H       21.96920000      10.17350000      19.34498000       0.00105717      -0.01766550       0.02418600
H       22.88980000      10.98140000      17.21578000      -0.03224200       0.08797220      -0.13322300
O       14.81290000       2.86228000      23.52618000      -0.04801110      -0.02131870       0.00495652
H       16.37280000       3.62098000      23.66798000       0.04547850       0.01981110       0.00023328
H       15.13480000       1.12958000      23.00658000       0.00305052       0.00249925      -0.00243432
O       12.98322000      13.76770000      19.32780000       0.02743900       0.04241780      -0.05131530
H       14.41772000      14.83370000      18.33470000      -0.05267870      -0.03509650       0.02433450
H       13.72602000      13.16490000      20.81790000       0.00673476      -0.00935204       0.02883710
