192
TotEnergy=-1103.54117000 cutoff=-1.00000000 nneightol=1.20000000 pbc="T T T" Lattice="24.60260000       0.00000000       0.00000000      -0.00000100      24.60260000       0.00000000      -0.00000100      -0.00000100      24.60260000" Properties=species:S:1:pos:R:3:force:R:3:Z:I:1
O              23.52230000     -2.16587000    -28.40160000     -0.01270290     -0.07563290     -0.01004370       8
H              23.52790000     -0.42785100    -28.08140000     -0.02807240      0.02336890      0.00147558       1
H              21.91760000     -3.29257000    -28.45160000      0.03402540      0.05580680      0.00447465       1
O              50.78610000     48.15690000      5.57938000     -0.07333880      0.04660760      0.02304970       8
H              51.97150000     47.52130000      6.67691000      0.04040020     -0.02904100      0.00261529       1
H              50.67820000     47.90440000      3.83260000      0.02698670     -0.01826220     -0.03029050       1
O              10.96890000      0.36080400     11.95230000      0.05742810     -0.01929860      0.07957100       8
H              12.51320000      1.48257000     12.09180000     -0.02892870     -0.00109046     -0.01300830       1
H              11.45330000     -0.58315000     13.69010000     -0.03095910      0.01929970     -0.06687970       1
O              -6.43268000     -8.34854000      0.39025300     -0.09739940      0.04769920      0.10831100       8
H              -5.78097000     -7.93619000     -1.08735000      0.04701120      0.01717160     -0.09341860       1
H              -7.64216000     -6.68842000      0.76019000      0.04644590     -0.06083660     -0.00274051       1
O               7.38061000     30.76950000     19.70510000      0.04044900      0.06064690     -0.02196910       8
H               7.25893000     32.52840000     20.70480000      0.00636421     -0.04675240     -0.04337650       1
H               8.87010000     31.04920000     18.34410000     -0.04772000     -0.01012330      0.05960040       1
O              -2.62537000     11.60800000     12.34740000      0.01253660      0.02213790     -0.01688640       8
H              -3.13229000     10.80840000     10.76410000     -0.00582146     -0.00751709      0.01114720       1
H              -1.55219000     13.02740000     11.69590000     -0.01085540     -0.02009400      0.01264150       1
O              46.41390000     25.09520000     12.39350000     -0.09648190     -0.02244340     -0.06231510       8
H              48.10380000     24.92490000     12.76350000      0.04676930     -0.00916448     -0.00425141       1
H              45.73400000     24.18530000     10.67390000      0.04383420      0.03401740      0.05794070       1
O              -1.89214000    -29.92990000     10.92140000      0.02323340     -0.01338640      0.05583370       8
H              -0.78421100    -31.38700000     10.67620000     -0.01768750      0.00704443     -0.02277010       1
H              -2.78681000    -29.20220000      9.59175000     -0.00386177      0.00281069     -0.03605730       1
O              29.95800000    -34.72150000     18.25360000     -0.02008850     -0.04663750     -0.00166786       8
H              30.53250000    -33.05350000     18.16550000      0.01452480      0.03393080      0.00403980       1
H              30.95650000    -35.87000000     19.41670000     -0.00234317      0.01555990     -0.01074740       1
O               8.25569000    -26.96020000    -26.95460000      0.04240140      0.05146550     -0.05600520       8
H               9.97143000    -26.22000000    -26.67510000     -0.02522920     -0.01950110     -0.00656992       1
H               7.84432000    -27.94240000    -25.61350000     -0.01507990     -0.03709840      0.06107610       1
O             -11.13000000      4.26273000      6.05598000     -0.08408890     -0.05171690      0.02455710       8
H             -12.63850000      3.44470000      5.02208000      0.03193220      0.02262230      0.02940290       1
H             -10.04070000      4.89312000      4.91309000      0.04913740      0.02925460     -0.04893600       1
O             -11.08750000     32.02660000     49.63010000     -0.01052190     -0.03565310      0.01965760       8
H             -10.71690000     30.39250000     48.81680000     -0.00478955      0.01915640     -0.00057079       1
H             -10.53540000     33.31900000     48.55830000      0.00784312      0.02257720     -0.02189540       1
O              14.25800000    -30.35620000    -14.46360000      0.07137700     -0.03441820     -0.04852230       8
H              14.71190000    -31.68880000    -15.90220000     -0.02085950      0.04302850      0.04389450       1
H              12.57660000    -30.49560000    -13.98370000     -0.04146580     -0.00564993     -0.00047132       1
O              25.65600000     14.49310000     34.68690000      0.02982400     -0.00363231      0.04366020       8
H              25.80500000     13.44810000     33.21380000      0.00171535      0.00281248     -0.00610340       1
H              27.04260000     13.89160000     35.96570000     -0.03055130      0.01029800     -0.03773990       1
O               1.01680000      3.09962000     -1.58077000     -0.01205090      0.03135100     -0.00767925       8
H               1.67603000      4.24341000     -0.32182900      0.00064552      0.02336880     -0.00244497       1
H               1.87334000      1.72393000     -0.93931900      0.02339810     -0.05529010      0.00868725       1
O             -28.56650000     23.50530000     31.78610000      0.01499640     -0.01273440     -0.01499590       8
H             -26.98950000     23.09420000     30.64170000     -0.06185100      0.01532700      0.02983450       1
H             -30.43470000     23.40390000     31.28650000      0.04814430     -0.00683752     -0.00103396       1
O             -35.18920000     12.83160000     23.76160000      0.06272100      0.03072570     -0.03578430       8
H             -34.97000000     13.22320000     21.86530000     -0.02087130     -0.01980320      0.04302560       1
H             -33.44400000     13.46180000     24.31120000     -0.03785540     -0.01241540     -0.00432969       1
O             -17.09100000     63.39990000    -20.77660000     -0.00447713      0.10119000      0.04761650       8
H             -17.15320000     63.29480000    -18.92500000      0.00353925      0.00448368     -0.00858974       1
H             -17.04090000     61.83990000    -21.35270000      0.00001178     -0.10478600     -0.04113380       1
O              67.44110000     18.50260000     38.59550000      0.06297780      0.04433280     -0.02606550       8
H              69.22650000     19.43140000     37.96090000     -0.07404770     -0.04236680      0.01211440       1
H              66.20900000     18.51200000     37.20460000      0.00748484      0.00970236      0.00346831       1
O              58.32650000    -22.13140000      4.20031000     -0.00850890      0.02167010     -0.04238420       8
H              56.93980000    -21.44680000      5.11422000     -0.00972983      0.00312982      0.01809780       1
H              57.87500000    -21.39340000      2.45349000      0.01659650     -0.02577220      0.02177600       1
O              33.57560000     19.17640000    -14.41210000      0.01027970      0.06530770      0.05249370       8
H              33.37110000     17.51970000    -14.85470000     -0.01065390     -0.05708470     -0.01423800       1
H              33.77110000     19.32100000    -12.49610000     -0.00309922      0.00047258     -0.03968110       1
O             -10.53600000      4.41193000     62.01850000      0.01294940     -0.00768130      0.00088318       8
H             -11.82030000      5.51784000     61.28790000      0.02185510      0.00135206     -0.01174320       1
H              -8.78100000      4.63472000     61.33140000     -0.03854740      0.01033770      0.01578380       1
O               8.38029000      3.28007000     -0.76460300      0.08864070      0.17912800      0.10375000       8
H               7.78524000      2.03950000     -1.49346000     -0.08812430     -0.18677000     -0.09932250       1
H               8.36331000      4.58217000     -2.04325000     -0.00045687      0.00399581     -0.00199548       1
O              45.34600000      4.52611000     23.67180000     -0.11691900      0.04682890     -0.04648400       8
H              45.03470000      4.95058000     25.33490000     -0.04007500      0.02753200      0.04444390       1
H              46.75620000      3.81086000     24.03630000      0.14353900     -0.07732450     -0.00090739       1
O              -4.69127000     61.30190000     28.27950000      0.02360040      0.01482630      0.02226950       8
H              -5.15731000     62.17180000     26.78890000     -0.00115363      0.01359250     -0.00994621       1
H              -3.05346000     62.10630000     28.90020000     -0.03155250     -0.02361580     -0.00938424       1
O               8.28240000     38.79090000      9.16676000      0.01756500      0.02182460     -0.08611910       8
H               7.15547000     38.72590000     10.44620000     -0.03877280     -0.01498350      0.06285470       1
H               9.88634000     38.08170000      9.44147000      0.02099970     -0.01104580      0.02037670       1
O             -18.07290000     19.62330000     18.08180000      0.00342358      0.02516610      0.00147358       8
H             -19.48580000     20.74330000     17.41010000      0.03463740     -0.02791170      0.02570360       1
H             -17.05800000     20.33900000     19.57190000     -0.03365840      0.00260955     -0.02539060       1
O              32.63120000     34.22860000     50.38450000      0.10021400      0.05971010     -0.03538400       8
H              34.51030000     33.78450000     50.42320000     -0.04732310     -0.00107384      0.00399571       1
H              31.64290000     33.06820000     51.12990000     -0.04188330     -0.06300100      0.02680330       1
O              12.25230000     36.40450000     19.04240000     -0.02227060     -0.09238110      0.05047070       8
H              12.36060000     37.54500000     17.71370000      0.01021520      0.02300370     -0.05230310       1
H              12.12870000     34.50740000     18.53480000      0.01844340      0.05188620      0.00476131       1
O               2.35516000    -26.27760000     25.03800000     -0.07295850      0.01228090     -0.04032720       8
H               0.86461200    -26.73370000     23.81080000      0.04474720      0.00886023      0.03316610       1
H               3.40611000    -27.71830000     24.96440000      0.01957870     -0.02073800      0.00507767       1
O               0.05114500     12.30200000      5.12048000      0.00801235     -0.03722090      0.10738100       8
H               0.40680700     10.47210000      5.67661000     -0.00829374      0.04509400     -0.00495205       1
H               0.13133600     12.09510000      3.44611000      0.01201070     -0.00779957     -0.09740730       1
O               2.12203000      1.06441000     14.10480000      0.01229460     -0.01496340      0.04136030       8
H               2.40787000     -0.49767900     15.10950000     -0.00352082      0.00836369     -0.02599150       1
H               2.11096000      2.25085000     15.52700000     -0.00398445      0.01013450     -0.01306880       1
O             -36.37730000     55.46030000    -30.94230000     -0.02935230      0.03683290      0.06606840       8
H             -36.23850000     55.16160000    -32.62800000      0.02598520     -0.02621680     -0.05483340       1
H             -35.34260000     54.52950000    -29.68810000     -0.00266428     -0.00536651     -0.02443540       1
O               3.88057000     52.79160000    -17.47630000      0.03815620      0.07446640      0.02616930       8
H               4.63504000     52.37150000    -15.87020000      0.00899272     -0.00125345      0.00022873       1
H               3.20173000     51.33750000    -18.02090000     -0.04140560     -0.07338480     -0.03426760       1
O             -37.31230000     41.06180000      2.47091000      0.00304451     -0.04758090     -0.03655380       8
H             -36.32450000     40.08040000      1.07547000     -0.03288190      0.02114320      0.03278320       1
H             -38.96550000     40.02070000      2.65084000      0.03080590      0.02808430      0.00615647       1
O              22.33970000     32.88220000     16.84620000     -0.00869889     -0.03004210      0.03424070       8
H              23.79750000     31.87150000     17.27100000      0.00542356      0.00055125     -0.00607504       1
H              22.82970000     34.05300000     15.63230000      0.00921634      0.02520480     -0.03060380       1
O             -13.02330000    -16.59140000      9.62169000     -0.03636800     -0.03095010     -0.04934390       8
H             -12.85920000    -17.73860000      7.94146000     -0.00010435      0.03753500      0.06029350       1
H             -14.93040000    -16.33450000      9.95823000      0.03961710     -0.01443180     -0.00935256       1
O             -46.78230000      5.34452000     17.84260000      0.03420130      0.00551705     -0.00140639       8
H             -46.74510000      4.38843000     19.38060000     -0.01235920     -0.00409761      0.01137350       1
H             -44.99060000      5.97964000     17.94650000     -0.02485930     -0.00513827     -0.00500624       1
O             -17.81930000    -16.61610000     35.78460000     -0.06094790     -0.02639130     -0.01132910       8
H             -18.37370000    -18.39770000     36.19160000      0.03159150      0.01606380      0.00420863       1
H             -19.35750000    -16.34450000     34.71230000      0.02405510      0.01387430      0.00791741       1
O              15.37560000     15.11530000     30.87350000      0.02821200     -0.00677360      0.00548136       8
H              17.05860000     14.48370000     30.30110000     -0.02987350      0.00889421      0.00331932       1
H              14.32870000     15.62380000     29.45170000     -0.00099186     -0.00354112     -0.00238597       1
O             -22.67070000     -4.37970000     40.18270000      0.00772179     -0.02943060     -0.07755360       8
H             -24.16840000     -4.13268000     41.03230000     -0.03876260      0.00853797      0.03270450       1
H             -23.35910000     -5.16766000     38.51200000      0.02798160      0.02904300      0.04911900       1
O              44.98840000      8.01254000     33.57310000      0.00663029     -0.00837194      0.02993430       8
H              44.30380000      7.93066000     31.95280000     -0.01475100     -0.00175464     -0.02797440       1
H              44.13220000      6.73954000     34.68660000      0.01595390      0.02047160     -0.01077070       1
O             -11.01120000    -34.53720000     -9.05946000      0.03889840      0.04712990      0.08670400       8
H              -9.11158000    -34.54290000     -8.98460000     -0.02070830     -0.00658997      0.01196070       1
H             -11.21160000    -34.98360000    -10.65950000     -0.02371910     -0.03290210     -0.10324700       1
O              55.60770000    -21.85530000    -13.06120000     -0.07681770      0.00727219      0.01628910       8
H              56.85610000    -22.67460000    -12.12370000      0.04276130     -0.01693620      0.00588323       1
H              54.00920000    -22.41780000    -12.09140000      0.02837860      0.00948024     -0.02140900       1
O              15.27700000     -1.39286000      7.22987000      0.00029633     -0.01174250     -0.00144436       8
H              14.73180000      0.31803800      7.23562000     -0.00823506      0.01432120      0.00304113       1
H              14.39050000     -2.30050000      8.58902000      0.00890408      0.00190783     -0.01138510       1
O             -35.27260000     -1.38306000     46.52110000      0.00552508     -0.01567150      0.03554060       8
H             -34.41290000     -2.31942000     45.14030000     -0.00609675      0.00776818      0.03344050       1
H             -34.91390000     -2.11496000     48.33260000     -0.00218413      0.00354935     -0.05408910       1
O               5.07462000    -11.81650000    -11.63610000     -0.03599630      0.10180500      0.04856040       8
H               4.96543000    -11.31570000     -9.76189000      0.00618852     -0.00713462     -0.03499050       1
H               5.59459000    -13.41920000    -11.66330000      0.02813270     -0.09002490     -0.00310299       1
O              18.64740000     14.09910000     15.79510000      0.00630648      0.00779606     -0.02505100       8
H              18.72490000     15.61260000     14.60960000      0.00202179     -0.00891080      0.02767190       1
H              19.29310000     12.80820000     14.66190000      0.00143055     -0.00469611      0.00584040       1
O              10.55950000     20.34850000     -9.70031000     -0.06983260      0.03618660      0.01333850       8
H              11.71900000     19.09430000     -9.47764000      0.03959450     -0.04625440      0.01391440       1
H               9.02988000     20.01140000     -8.53177000      0.03118750      0.00312135     -0.01876510       1
O              26.36770000     57.27200000     32.74450000      0.01215000      0.00967301     -0.00481080       8
H              24.80000000     57.22620000     33.60910000     -0.01683100     -0.00130587      0.00867268       1
H              26.80510000     55.52430000     32.42480000      0.00060123     -0.00793398     -0.00578264       1
O              -6.48807000      7.37229000      2.95262000     -0.06500610     -0.09378190      0.00444014       8
H              -5.51506000      8.73552000      2.85317000      0.04791980      0.08642810     -0.00255477       1
H              -8.22765000      7.71672000      2.38856000      0.02028410      0.00232160      0.00195739       1
O              18.13150000    -29.20220000     19.64090000      0.00577313     -0.06727850      0.02012510       8
H              18.18530000    -31.20380000     19.85350000     -0.00105511      0.07338120     -0.01610290       1
H              18.16130000    -28.90430000     17.85270000     -0.00093099     -0.00805273     -0.00767035       1
O               1.89798000     14.55020000     46.59370000     -0.03412710      0.01023310      0.01189330       8
H               0.08732100     15.34250000     46.50650000      0.06943640     -0.02303990     -0.02254190       1
H               3.23185000     14.41760000     45.18710000     -0.04273080      0.01934290      0.00580099       1
O              39.39030000     45.28630000      2.09965000     -0.00241107      0.02917020      0.04281460       8
H              39.62980000     46.55720000      3.64873000     -0.01187070     -0.05129110     -0.04339820       1
H              38.03750000     44.02140000      2.54571000      0.01340810      0.02158780     -0.00252487       1
O              20.56740000     14.74070000    -28.23900000      0.01655750     -0.04874500      0.06854750       8
H              20.68300000     12.99480000    -27.32630000     -0.00307163      0.05199930     -0.00897492       1
H              20.31400000     13.95870000    -29.76600000     -0.01175710     -0.00501385     -0.06878560       1
O             -18.94700000     44.13850000      2.00298000      0.00295975     -0.00786679      0.00945064       8
H             -18.83210000     42.28720000      2.03419000     -0.00080348      0.02154730      0.01108810       1
H             -19.00390000     44.88190000      3.72993000      0.00881999     -0.01754190     -0.02182110       1
O               6.51483000    -26.64170000     31.03540000      0.00592110     -0.00525356      0.02835180       8
H               7.23860000    -26.96380000     32.67710000     -0.01336130     -0.03816130      0.01434980       1
H               7.69970000    -25.32690000     30.93850000      0.01230660      0.03361670     -0.03969560       1
O               3.54080000     31.38710000      1.42951000      0.02325360     -0.03537850      0.00553424       8
H               3.47393000     31.48120000      3.20904000     -0.00248667     -0.00927795      0.02013210       1
H               2.70530000     32.88620000      0.96889600     -0.02277400      0.03528150     -0.01946200       1
O             -11.31420000    -11.93570000     10.74250000      0.03103390      0.07861480     -0.01556180       8
H             -11.93030000    -13.55070000     10.35150000      0.00485335     -0.03568280     -0.02328300       1
H             -10.31610000    -10.96990000      9.35193000     -0.03260440     -0.04546190      0.02937880       1
O              -5.40071000      5.02243000     12.69000000     -0.01880330      0.08847830      0.04233390       8
H              -4.26574000      5.30385000     14.11870000     -0.01361310      0.01002260     -0.00818832       1
H              -4.94860000      3.48419000     12.22540000      0.03409950     -0.10546600     -0.03109530       1
O              25.37730000    -13.97390000      0.33653900     -0.03796080     -0.00707474     -0.03730020       8
H              25.94240000    -12.50590000     -0.58483500      0.02232780      0.01853110     -0.00285197       1
H              24.00240000    -14.39900000     -1.00805000      0.02014110     -0.00832110      0.04483900       1
O              21.49800000      9.35404000     46.69550000      0.06046960      0.14292500     -0.04014500       8
H              20.92790000      7.83758000     46.83550000     -0.05557730     -0.14199500      0.02695250       1
H              22.30830000      9.26189000     45.03180000     -0.01063460      0.00622291     -0.00006096       1
O              15.34250000     28.10100000     46.05250000     -0.00183511     -0.02048670      0.03313740       8
H              17.07770000     28.40460000     46.60840000     -0.01097360     -0.00918758     -0.00334109       1
H              14.67770000     26.43110000     46.80920000      0.01996290      0.02664350     -0.02744410       1
O             -16.92880000     11.36610000     20.93260000      0.02338010     -0.01812320      0.03967130       8
H             -15.14510000     11.54160000     20.25040000     -0.01132620      0.00383798      0.00901748       1
H             -16.76970000     11.05940000     22.84850000     -0.00752844      0.00892958     -0.03914300       1
