192
TotEnergy=-1103.29814000 cutoff=-1.00000000 nneightol=1.20000000 pbc="T T T" Lattice="24.39485000       0.00000000       0.00000000      -0.00000100      24.39485000       0.00000000      -0.00000100      -0.00000100      24.39485000" Properties=species:S:1:pos:R:3:force:R:3:Z:I:1
O              23.92460000     -4.16967000    -28.78280000      0.03446960      0.08365020      0.09385830       8
H              22.81430000     -4.26170000    -29.99980000     -0.08366310     -0.00835845     -0.08710560       1
H              24.84410000     -5.59104000    -28.70270000      0.04757110     -0.07363860     -0.00531400       1
O              49.95070000     46.27360000      0.89379300     -0.03851840      0.05107770      0.02521510       8
H              48.52850000     47.57220000      1.17429000      0.04474850     -0.02267900      0.00538541       1
H              49.08190000     45.36840000     -0.34504200     -0.00416673     -0.02566460     -0.03116060       1
O              10.09780000      2.40431000     14.99940000      0.04555010      0.01176830      0.00468631       8
H              11.75220000      2.94878000     15.80790000     -0.03587020     -0.01205210     -0.00286604       1
H               9.86639000      0.63743800     15.46990000     -0.00043438      0.00107112     -0.00082803       1
O              -5.90628000    -10.60610000     -4.14454000     -0.05834680     -0.01643600     -0.01676180       8
H              -4.57940000    -11.28930000     -5.03391000      0.04660510     -0.02697010     -0.02289520       1
H              -5.41779000     -9.38392000     -3.01908000      0.02053340      0.04458920      0.03613410       1
O               5.06004000     32.48100000     19.42290000      0.00590957      0.02988890      0.08495420       8
H               6.75633000     32.64960000     20.20830000     -0.02635690      0.00370811     -0.00953070       1
H               5.12164000     31.81860000     17.87180000      0.01534340     -0.03594770     -0.08136550       1
O              -3.78880000      8.71861000      6.04639000      0.10523900      0.09646300     -0.20008700       8
H              -4.35003000      8.13472000      7.36203000     -0.09243090     -0.08534280      0.20997300       1
H              -4.85938000      8.24956000      4.69857000     -0.01589130     -0.00172075     -0.01094370       1
O              44.88330000     25.00570000     12.89770000     -0.13727100     -0.06549300     -0.03935430       8
H              46.48630000     25.50190000     12.95930000      0.09937310      0.02371000     -0.00918855       1
H              44.17990000     24.15840000     11.16300000      0.04725930      0.03804320      0.04821390       1
O              -0.39830800    -28.79380000      8.34171000     -0.05285230      0.10032300      0.01192860       8
H               0.03037400    -29.74920000      6.85842000      0.00321645     -0.00466771     -0.01913640       1
H              -1.62982000    -27.09550000      7.79454000      0.05082240     -0.08373730      0.01872530       1
O              34.13280000    -34.10070000     17.72030000     -0.16085300      0.00719158     -0.00204086       8
H              35.61090000    -34.61490000     18.32000000      0.07905300     -0.04062300      0.04346890       1
H              32.48930000    -35.02250000     18.59580000      0.08112710      0.03781600     -0.02944080       1
O               9.91290000    -26.91550000    -24.69170000      0.02718830     -0.03172310      0.00596921       8
H              11.57910000    -27.29410000    -25.54410000     -0.02736490      0.00436195      0.01479010       1
H               9.81920000    -28.20650000    -23.29920000      0.00451740      0.02163240     -0.01507470       1
O              -8.06233000      3.41467000      7.46147000      0.02302230      0.00482567     -0.01108350       8
H              -8.68532000      3.65632000      5.74635000     -0.00873931     -0.00460119      0.01856050       1
H              -9.23805000      2.46618000      8.52731000     -0.01227320      0.00414514     -0.01146980       1
O             -11.73170000     28.28280000     51.76690000      0.01452770     -0.02115030     -0.03352490       8
H             -13.66570000     28.57280000     51.81940000      0.04373560     -0.01963570     -0.00590700       1
H             -10.86360000     27.21240000     50.33750000     -0.05255890      0.03335690      0.03798620       1
O              14.85090000    -28.50920000    -13.74210000     -0.08084610      0.10527800      0.08962200       8
H              15.51550000    -29.94870000    -14.19930000      0.05077970     -0.11318300     -0.05676480       1
H              14.03200000    -29.07440000    -12.09560000      0.02094680      0.01723410     -0.02529550       1
O              29.15190000     14.90930000     38.71370000      0.02480980      0.01140730     -0.00549209       8
H              27.85210000     13.76760000     38.28050000     -0.02456950     -0.01347180     -0.01188450       1
H              30.63820000     14.01990000     37.98010000     -0.00640185      0.00405640      0.01646520       1
O              -0.85871100      2.65343000      1.99072000     -0.10455900     -0.04253600      0.00007740       8
H              -0.50379200      3.01179000      3.61834000      0.02173860      0.02061080      0.07442350       1
H               0.47489500      2.81130000      1.01722000      0.09356060      0.02091560     -0.06706140       1
O             -29.73660000     23.43540000     32.47970000     -0.00871765      0.01547150      0.01265210       8
H             -30.66360000     25.04410000     32.17130000      0.01386730     -0.00291840     -0.00888783       1
H             -30.95740000     22.56790000     33.49950000     -0.00666346     -0.01712910     -0.00497226       1
O             -33.45850000     11.59320000     23.46640000     -0.03151310     -0.00690335     -0.01586130       8
H             -34.79550000     10.94940000     22.26050000      0.02335460      0.00955710      0.02189320       1
H             -32.24650000     12.44150000     22.37700000      0.00197128     -0.00749021      0.00025786       1
O             -18.69500000     63.29500000    -20.56810000     -0.00844084      0.02670510     -0.04351140       8
H             -18.32430000     62.45350000    -18.98890000     -0.01627210     -0.02285180     -0.00446107       1
H             -19.25030000     62.31730000    -22.11530000      0.01004890      0.00994602      0.04588880       1
O              68.17990000     20.54700000     40.80800000     -0.04407360      0.05536520     -0.02322400       8
H              68.65940000     22.03800000     39.62830000     -0.00949772     -0.03142910      0.03098080       1
H              66.29840000     20.98490000     41.21710000      0.05785110     -0.02026020     -0.01311320       1
O              56.48480000    -20.56000000      4.48823000     -0.01988790     -0.07599130     -0.06205960       8
H              56.63440000    -22.17960000      5.39433000      0.00946311      0.02185870      0.02896000       1
H              55.84670000    -21.79990000      2.93867000      0.00558318      0.05945250      0.02686740       1
O              30.90490000     19.59960000    -12.04200000     -0.04590310     -0.06789280     -0.00981882       8
H              31.64950000     19.22240000    -13.73500000      0.01663250      0.01797230      0.01348150       1
H              29.88760000     17.85750000    -11.87210000      0.02350120      0.04921530      0.01782120       1
O             -17.17400000      6.74999000     63.05040000      0.05622630      0.02230430     -0.01274680       8
H             -16.36720000      8.46953000     62.66070000     -0.01894660     -0.03798790      0.01048630       1
H             -15.67880000      5.50745000     63.08760000     -0.04424920      0.02301430      0.00121946       1
O               5.92384000      0.80149900      0.22262200      0.00738061      0.01044530      0.01289840       8
H               5.11514000     -0.65895700      1.01569000      0.01524970      0.00825873     -0.01461500       1
H               7.73129000      0.53008100     -0.12658400     -0.02313280     -0.01798960      0.00471219       1
O              44.09230000      4.46479000     24.13570000     -0.02268910     -0.01362790     -0.03091590       8
H              43.41130000      5.67374000     25.19200000     -0.03299200      0.03967820      0.01974230       1
H              45.38970000      3.89730000     25.22260000      0.03684750     -0.02202250      0.00439389       1
O              -2.36501000     62.20730000     28.09120000     -0.02394280     -0.00212242     -0.04349300       8
H              -2.74995000     61.06330000     29.36740000     -0.00721911     -0.02477550      0.02723810       1
H              -1.05472000     63.23520000     28.59890000      0.02985550      0.02726500      0.01491440       1
O              10.82080000     37.07810000      8.69185000      0.05917630      0.02634000     -0.04786840       8
H               9.42714000     36.98810000      7.54728000     -0.00821889     -0.00507572      0.00342007       1
H              12.30360000     37.76260000      7.53263000     -0.04918380     -0.02333210      0.04556190       1
O             -18.01710000     20.38320000     20.50060000      0.05007130      0.04017210      0.02815540       8
H             -19.30570000     19.17490000     20.42180000     -0.01399310     -0.02590940      0.01102000       1
H             -16.99790000     20.52820000     22.17580000     -0.03024480     -0.00789187     -0.04541200       1
O              30.53270000     33.17330000     52.14000000      0.04149770      0.02623830      0.04248060       8
H              31.11850000     31.55680000     52.75730000     -0.01426530     -0.01065320     -0.02311190       1
H              29.41940000     33.55740000     50.83360000     -0.04405840     -0.02671620     -0.01741160       1
O              12.11930000     33.81000000     19.80250000     -0.01843010     -0.08132910      0.03923460       8
H              13.01850000     34.80130000     18.74450000      0.03337900      0.05630380     -0.05026600       1
H              12.86720000     32.11220000     19.36500000     -0.02064780      0.02135100      0.00948507       1
O               2.65402000    -24.26050000     18.71990000      0.07562610      0.01519620      0.02131340       8
H               1.84354000    -25.58970000     19.61080000     -0.01016710     -0.02172270      0.00362743       1
H               4.56420000    -24.42920000     19.31560000     -0.06801570      0.00109640     -0.01933690       1
O               1.23443000     17.62430000      4.24468000      0.02674970     -0.08774040      0.03948930       8
H               2.80019000     16.40160000      4.46236000     -0.03917330      0.03371090     -0.00961840       1
H               1.85850000     18.98710000      3.39723000      0.01874110      0.05006540     -0.03553020       1
O               1.36984000      2.08379000     13.87130000      0.01098290     -0.01165080     -0.13272700       8
H               2.59883000      0.82406300     12.79330000     -0.04318520      0.03881290      0.02198460       1
H               1.77530000      1.67147000     15.43350000      0.02145810     -0.02380880      0.10590200       1
O             -34.66980000     53.19900000    -30.71950000     -0.04403100      0.01489770     -0.00516299       8
H             -33.34750000     53.49410000    -31.86380000      0.03327690      0.00358548     -0.01321950       1
H             -34.09570000     52.83400000    -29.05330000      0.01045720     -0.01721690      0.00825490       1
O               8.04110000     48.52310000    -16.34020000      0.00699948      0.01029320      0.06840770       8
H               9.54539000     49.03800000    -15.08880000     -0.05565790     -0.00073040     -0.04111560       1
H               6.14335000     48.37070000    -15.25210000      0.04859290      0.00142901     -0.02105960       1
O             -34.22330000     39.73790000      3.35490000     -0.03704590     -0.00028536     -0.04716090       8
H             -34.07420000     38.45560000      1.93884000     -0.00282299      0.01804370      0.02834580       1
H             -35.86510000     40.70800000      2.89906000      0.04139570     -0.02225630      0.01945580       1
O              20.45870000     36.35460000     12.95230000     -0.05105030      0.01907750     -0.03358310       8
H              20.36580000     38.33610000     12.81390000     -0.00204865     -0.05144280     -0.00130699       1
H              18.89680000     35.55420000     11.99250000      0.05834290      0.03557950      0.02859570       1
O             -18.89510000    -13.03670000      7.68371000     -0.07011200      0.06501190      0.14259300       8
H             -18.63070000    -14.11420000      6.45015000      0.00407849     -0.08440640     -0.08224790       1
H             -20.60130000    -13.52690000      8.93953000      0.06224750      0.02885080     -0.05415770       1
O             -47.26570000      4.37240000     21.63440000     -0.00201205     -0.02187200     -0.01794180       8
H             -46.99480000      2.57318000     20.70290000      0.01769070      0.06799440      0.01632030       1
H             -46.18590000      5.92533000     21.27830000     -0.01329650     -0.05189050     -0.00578040       1
O             -22.74450000    -13.07040000     35.77700000      0.00715585     -0.05693180      0.00162323       8
H             -22.12320000    -15.18340000     35.84030000     -0.02808610      0.05005720      0.00945747       1
H             -24.57360000    -13.23260000     36.08670000      0.01634120      0.00586509     -0.00730885       1
O              16.51350000     16.28280000     32.71170000     -0.07068670     -0.03329560     -0.04315260       8
H              18.09280000     16.75450000     33.18290000      0.06572550      0.00667582      0.00647081       1
H              16.30680000     15.65860000     30.92040000      0.01187130      0.01883470      0.03377910       1
O             -20.61160000     -1.09681000     35.15100000     -0.03144340     -0.07141270     -0.01550430       8
H             -19.65010000     -2.55031000     36.34920000     -0.02290510      0.02447570     -0.04233000       1
H             -22.17110000     -2.24679000     34.06460000      0.05949440      0.03771060      0.04280040       1
O              42.73680000      7.41868000     35.01040000      0.02692600      0.01208540      0.07041050       8
H              42.22860000      6.10388000     33.92030000     -0.01202500     -0.02522590     -0.00606560       1
H              43.28200000      6.70721000     36.83890000     -0.02308720      0.00867701     -0.05894190       1
O              -9.81748000    -35.69540000     -7.35887000      0.03095190     -0.03488630     -0.00768598       8
H              -8.24825000    -35.53220000     -6.26095000     -0.02639950     -0.00244781     -0.02382160       1
H              -9.59939000    -37.12460000     -8.68842000     -0.00559042      0.04557860      0.02259890       1
O              51.52250000    -17.76210000    -12.68840000      0.10518900      0.10213800     -0.06866260       8
H              53.26000000    -17.83680000    -11.97770000     -0.01342590     -0.01285100      0.00398047       1
H              50.45450000    -18.82270000    -12.05450000     -0.08011940     -0.09561810      0.06810670       1
O              13.17950000      0.92641400     10.13110000     -0.02844060     -0.01513200      0.06912660       8
H              12.50860000      2.11005000     11.67170000      0.02203290     -0.05776340     -0.04885900       1
H              13.45710000     -0.99638600     10.64960000     -0.00239385      0.06567160     -0.00816822       1
O             -34.32290000     -3.91280000     45.86930000      0.09019090     -0.03618640      0.08480550       8
H             -34.77070000     -4.20438000     44.22440000     -0.00639103     -0.01697130     -0.05715730       1
H             -32.58240000     -5.14226000     46.35160000     -0.07874050      0.05561470     -0.02393140       1
O               9.08442000    -12.08460000    -10.84610000     -0.02388110     -0.02525090     -0.06612490       8
H               9.73653000    -11.24380000     -9.47033000      0.02042650      0.02730870      0.04819200       1
H               9.75569000    -11.25000000    -12.34900000     -0.00232759     -0.00859023      0.00431975       1
O              20.41020000     17.33980000     12.19410000      0.02548390      0.03957730      0.00672127       8
H              19.74870000     18.38230000     13.68250000      0.01877200     -0.01886440     -0.02790320       1
H              21.97180000     18.24400000     11.45100000     -0.04366180     -0.02321170      0.02067130       1
O               9.50737000     21.62070000     -8.44035000     -0.02288840     -0.00903102     -0.01767430       8
H               8.64062000     21.32770000     -6.87733000     -0.00377829     -0.00147077      0.01971520       1
H               8.18315000     20.92610000     -9.61689000      0.02454270      0.00453805      0.00462033       1
O              24.35360000     53.87130000     31.09400000      0.05963060     -0.09396610      0.03256480       8
H              25.03040000     53.76740000     32.82680000     -0.00593380      0.00258315     -0.02891910       1
H              23.53540000     55.33040000     30.98010000     -0.05001730      0.08649510     -0.00902094       1
O              -8.43694000      7.89333000      2.69514000      0.03525820     -0.00112300      0.02390160       8
H              -8.88135000      8.85278000      1.28000000     -0.00297306      0.02486270     -0.02414950       1
H              -9.45896000      6.44527000      2.65022000     -0.02601770     -0.02157000      0.00411307       1
O              13.92990000    -29.80550000     16.20490000     -0.04095540     -0.01421540      0.00824665       8
H              12.05770000    -29.36540000     16.21470000      0.03068590      0.00377507     -0.00354063       1
H              13.84760000    -31.60060000     16.66660000      0.01039430      0.01075260     -0.01009140       1
O               2.95182000     16.31210000     44.03200000      0.01043520     -0.04098660     -0.03732920       8
H               2.31210000     14.56780000     44.28880000     -0.00764336      0.00768577      0.01962750       1
H               3.76352000     15.77660000     42.40330000     -0.00594187      0.02759840      0.01591180       1
O              43.39940000     41.69740000     -0.46174300      0.02813880     -0.00876537      0.06724990       8
H              45.25510000     41.78710000      0.21697100     -0.06172090     -0.00353186     -0.02170400       1
H              42.39350000     41.13440000      1.12838000      0.02761500      0.01424630     -0.04285960       1
O              21.48940000     10.42740000    -31.13580000     -0.02384510     -0.04465550      0.00265884       8
H              21.12780000      8.60870000    -30.41850000      0.01749900      0.04561340     -0.02609030       1
H              20.94740000     10.59210000    -32.93640000      0.00612620     -0.00092459      0.01460040       1
O             -14.56920000     42.55480000      3.68861000     -0.02419990     -0.03709540     -0.11740300       8
H             -16.07290000     41.43080000      3.53844000      0.01457080      0.00440217     -0.01967270       1
H             -14.72610000     42.68800000      5.33623000      0.00928306      0.03080660      0.12746500       1
O               9.60231000    -29.22770000     33.00110000      0.05870460      0.09203350     -0.00247504       8
H              11.38170000    -28.44410000     33.36270000     -0.03455320     -0.05558720     -0.00274132       1
H               9.23108000    -27.10160000     32.70460000     -0.03496250     -0.05277900     -0.00995441       1
O               2.38201000     35.61510000      0.54348200      0.10171000      0.02400780      0.09663000       8
H               1.05906000     35.57930000      1.62702000     -0.05661780     -0.00072052      0.03462500       1
H               1.95759000     35.27780000     -1.01098000     -0.04375730     -0.02040660     -0.12130500       1
O             -10.40360000    -13.89930000     12.36990000     -0.02946060      0.00053660     -0.00412289       8
H              -8.97089000    -14.86850000     11.68710000     -0.03030930      0.00083689     -0.01244230       1
H             -12.14720000    -13.80470000     11.41980000      0.07180200     -0.01137090      0.01887690       1
O              -5.89936000      4.75558000     15.06050000      0.01773070      0.02630240      0.03985700       8
H              -4.59209000      4.72139000     16.55050000     -0.02320620     -0.00232206     -0.03339910       1
H              -5.72834000      3.23139000     14.11870000      0.01148990     -0.01876530     -0.00374063       1
O              25.46940000    -13.13450000     -4.21884000      0.04181760     -0.04244920     -0.05720070       8
H              24.18540000    -13.44550000     -5.69309000      0.02141320      0.00634977      0.03857540       1
H              27.07610000    -14.37040000     -4.71906000     -0.05028970      0.04489840      0.01829220       1
O              21.42710000      5.36237000     43.59880000     -0.08267370      0.01506250      0.02942870       8
H              19.67550000      5.58844000     44.97330000      0.10119800     -0.02538520     -0.04304110       1
H              23.01510000      4.59109000     44.29180000     -0.02019990      0.01697890      0.01686910       1
O              15.24900000     26.34500000     46.59770000      0.06336860      0.05726500      0.05900190       8
H              16.98990000     26.54820000     47.55250000     -0.04683660      0.01517030     -0.02718290       1
H              15.38850000     24.64690000     46.38720000     -0.01174640     -0.07222340     -0.01943370       1
O             -16.74770000     10.59030000     22.93970000     -0.05403010      0.00468697      0.07041600       8
H             -14.99130000     10.55660000     22.61990000      0.01723740     -0.00138364      0.01607670       1
H             -17.40950000     10.51940000     25.01760000      0.06135530     -0.00192042     -0.09339580       1
