192
TotEnergy=-1103.14398000 cutoff=-1.00000000 nneightol=1.20000000 pbc="T T T" Lattice="22.85717000       0.00000000       0.00000000      -0.00000100      22.85717000       0.00000000      -0.00000100      -0.00000100      22.85717000" Properties=species:S:1:pos:R:3:force:R:3:Z:I:1
O              11.06830000      6.09952000     22.47770000      0.00450562     -0.00014684     -0.00209770       8
H              10.53550000      6.57096000     24.17530000      0.00326850     -0.00483769     -0.00730856       1
H              12.82510000      5.71313000     22.76500000     -0.00367310      0.00398008     -0.00599761       1
O               1.26613000     11.44690000     16.25030000      0.00250229     -0.00213036     -0.00552889       8
H               0.75788900      9.68592000     16.12680000      0.00315313     -0.00439065      0.00611989       1
H              -0.02233400     12.21530000     17.32520000      0.00520846      0.00171897     -0.00531015       1
O               2.76814000     10.69320000     22.63150000     -0.00256258     -0.00069673     -0.00361415       8
H               4.01749000     11.76120000     24.99090000     -0.00012737      0.00291940      0.00623108       1
H               3.93484000     11.03380000     21.24060000     -0.01281110     -0.00408418      0.00956649       1
O              14.97290000     10.17010000      4.33356000     -0.00273566      0.00254019     -0.00115221       8
H              13.97220000      8.69879000      3.94563000     -0.00159774      0.00197583      0.00028186       1
H              14.02210000     11.55040000      3.56408000      0.00321252      0.00610576     -0.00111845       1
O              17.53840000     17.97750000     17.65580000     -0.00593458      0.00063914      0.00224291       8
H              16.17410000     17.65520000     16.44030000      0.00212325     -0.00177168      0.00745511       1
H              17.00960000     19.44780000     18.60810000      0.00152073     -0.00737892      0.00342349       1
O               3.11032000     20.81690000      6.14766000      0.00173057     -0.00685115     -0.00616425       8
H               4.86807000     21.02420000      5.68862000      0.00361969      0.00210485      0.00227101       1
H               3.13143000     19.80370000      7.67191000     -0.00411593      0.00170190     -0.00471475       1
O              15.53130000      6.12364000     12.53240000     -0.00103212     -0.00195700     -0.00570290       8
H              15.26320000      5.38957000     14.16990000      0.00207264     -0.01027160     -0.00503117       1
H              14.63060000      7.67479000     12.80040000      0.00011541      0.00613943     -0.00750576       1
O              21.29510000     19.71710000     15.18080000      0.00928855     -0.01127360      0.00379330       8
H              22.95130000     18.97140000     15.07410000      0.00572236      0.00283493      0.00038464       1
H              20.30480000     18.66730000     16.32120000     -0.00014555      0.00219079     -0.00130639       1
O               7.81959000     16.47170000      2.17662000     -0.00008378      0.00214111      0.00026976       8
H               4.46881000     19.25910000      2.20015000      0.01632810     -0.01176730     -0.00137211       1
H               9.14354000     16.48750000      0.93852500     -0.00715345      0.00386676     -0.00491547       1
O               6.22376000     12.49420000      8.80355000      0.01439090      0.00499962      0.01158810       8
H               6.34137000     12.19220000     10.63810000     -0.00647778      0.00673571     -0.00852773       1
H               7.79263000     13.37200000      8.33961000     -0.00848158     -0.00331312      0.00135502       1
O               5.23949000     12.57280000      3.39412000     -0.00011247     -0.00736761     -0.00352368       8
H               7.06143000     14.77140000      2.25800000     -0.00230143      0.00961706      0.00319906       1
H               4.73278000     12.54010000      5.12904000     -0.00099573     -0.00427719     -0.00116419       1
O              22.23870000     13.73420000      9.61189000      0.00050695     -0.00326343     -0.00371549       8
H              23.16120000     12.17230000      9.48583000     -0.00211884     -0.00112210     -0.00295844       1
H              21.46190000     13.99290000      7.99067000      0.00067635     -0.00265775      0.00061771       1
O              11.88840000      5.01260000     16.11360000      0.00024763      0.00156604      0.00058345       8
H              10.88260000      6.25360000     15.18330000     -0.00160866     -0.00128407      0.00044539       1
H              13.20380000      5.94081000     16.94190000     -0.00783977      0.00426700      0.00717721       1
O               7.78525000     11.11200000     21.76980000      0.00664965      0.00232782     -0.00042297       8
H               7.26258000     10.78870000     23.48630000      0.00158528     -0.00047356     -0.00263971       1
H               8.89202000      9.73778000     21.33580000      0.00119659     -0.00053644     -0.00024710       1
O              10.88020000      7.31300000      4.39429000     -0.00438602      0.00159180      0.00044023       8
H               9.08714000      7.24819000      4.65040000     -0.00354406      0.00063109      0.00503574       1
H              11.60880000      6.04755000      5.48989000     -0.00383211      0.00167036      0.00174830       1
O               1.08736000      2.67692000      4.77108000     -0.00302222      0.00224928     -0.00579318       8
H               1.89955000      1.03314000      4.83521000     -0.00612258      0.00351401      0.00214640       1
H              -0.04396200      2.58925000      3.32863000      0.00178252     -0.00495447     -0.00190889       1
O              12.04060000     16.86820000     20.51510000     -0.00266738      0.00017984      0.00655245       8
H              12.48130000     15.60690000     21.75330000     -0.00023043     -0.00246066      0.00328128       1
H              13.26070000     18.23300000     20.83180000     -0.00846766      0.00115902      0.00287709       1
O              17.40550000      6.20261000      1.05336000     -0.01860390     -0.01336300     -0.00476453       8
H              18.50380000      5.78991000     -0.31267100      0.01407210      0.00112824     -0.00391438       1
H              17.86410000      7.87098000      1.50916000      0.00557231      0.00745797     -0.00000380       1
O              12.49530000     14.70070000      2.34718000      0.00171278     -0.01505080      0.00423423       8
H              13.26510000     15.66660000      3.69735000      0.00712694     -0.00164990     -0.00997974       1
H              10.78010000     14.58240000      2.95090000      0.00088942     -0.00090229      0.00035497       1
O              14.91190000     10.14890000     16.19830000      0.00842524      0.00879214     -0.00330971       8
H              16.42670000     10.29160000     17.20620000     -0.00716564     -0.00471100      0.00091702       1
H              15.31150000     11.34400000     14.84890000     -0.00760084     -0.00949685      0.01028940       1
O               2.18551000      1.76856000     19.89690000      0.00790457     -0.00111575     -0.00863051       8
H               1.51069000      1.44598000     18.18570000      0.00138032      0.00170985      0.00276306       1
H               3.90606000      2.30419000     19.55510000     -0.00942183     -0.00287461      0.00604867       1
O              17.57820000     21.56650000     13.63810000     -0.00676837      0.00495561     -0.01465980       8
H              18.26640000     20.07830000     12.85820000     -0.00301138     -0.00899487      0.00428107       1
H              16.68950000     20.27360000     10.39940000      0.00126655      0.01227640     -0.01570740       1
O              14.78930000     20.89950000     20.98140000     -0.00031628      0.00638802     -0.00283752       8
H              14.02770000     21.96820000     19.70070000     -0.00330251      0.00105164      0.00039182       1
H              14.99620000     21.91070000     22.50620000      0.00462459      0.00120496     -0.00660737       1
O              16.38340000     19.86710000      8.60797000     -0.00502768      0.00470536      0.01316050       8
H              18.12530000     19.68240000      7.26824000      0.01030390     -0.00178580      0.00026793       1
H              15.18090000     21.10670000      7.83483000     -0.00533936     -0.00368744     -0.00418962       1
O              21.60800000     13.52730000      0.95344200     -0.00185501      0.00560984      0.01049380       8
H              22.81160000     12.18290000      0.46530900     -0.00230893      0.00942688     -0.00225499       1
H              20.27490000     12.00080000      3.32466000      0.00693315     -0.00267513     -0.02323150       1
O              19.59650000     10.27820000      3.89457000      0.00802412      0.00325173      0.00030745       8
H              17.70050000     10.20760000      4.09839000     -0.01274670      0.00843012      0.00521874       1
H              20.54660000      9.40737000      5.32861000     -0.00581434      0.00804693      0.00129953       1
O               6.15560000     12.31320000     13.93930000     -0.01136120      0.00655610      0.00777865       8
H               4.60753000     12.08370000     14.96590000      0.00619075      0.00561660     -0.00989154       1
H               6.52061000     14.12110000     13.77320000      0.00306329     -0.01049310      0.01105700       1
O              15.07460000     14.51590000      9.90450000     -0.00241071      0.00448074      0.00490685       8
H              15.07290000     16.32420000      9.89010000      0.00152571      0.00348983      0.00342278       1
H              15.96850000     14.07970000     11.49300000     -0.00176160     -0.00177528     -0.00784392       1
O               5.62264000     16.61530000     19.65990000     -0.00036898     -0.00292284     -0.00188424       8
H               6.35563000     14.97140000     19.89980000      0.00632155     -0.00012181      0.00109996       1
H               6.88801000     17.70220000     18.93580000      0.00275785     -0.00402513      0.00223774       1
O               6.57071000      7.68550000      7.79979000      0.02342200      0.02847820      0.00315262       8
H               5.17613000      6.92572000      8.67905000     -0.00219762     -0.00186721      0.00155778       1
H               6.96989000      9.43447000      8.41913000     -0.01327560     -0.02211360     -0.01044460       1
O               5.38345000      5.71620000      3.51651000     -0.00929647      0.00317550     -0.00541904       8
H               5.18021000      7.01856000      4.79586000      0.00740217     -0.00465632     -0.00306608       1
H               3.82746000      4.77993000      3.70822000     -0.00224154      0.00048273      0.00178546       1
O              16.47560000      1.04855000      1.76036000      0.00291760      0.00295358      0.00055523       8
H              16.15870000      2.80871000      1.39919000     -0.00173322      0.00269891      0.00714904       1
H              18.23870000      0.89875300      1.20446000     -0.00013009     -0.00410718      0.00350580       1
O               8.79812000      7.94793000     13.18260000      0.00544884     -0.00125895      0.00263760       8
H               8.08000000      9.44713000     13.93530000     -0.00095025      0.00532180     -0.00148399       1
H               9.80704000      8.64365000     11.81830000      0.00059043     -0.00177234     -0.00187345       1
O               3.52183000      4.19094000      8.73077000     -0.00813795      0.03478200      0.00026425       8
H               7.47810000      4.42909000     19.19950000     -0.00562471     -0.02386790     -0.01017920       1
H               6.94841000      3.33017000     18.34730000      0.01289780      0.01854410      0.01651760       1
O               3.98294000     19.44480000     23.32100000     -0.02158320     -0.01086950      0.00877760       8
H               4.90870000     21.97170000     23.39690000     -0.00222414      0.02791190      0.00243780       1
H               4.75180000     18.05300000     22.37470000      0.00233701     -0.00212406     -0.00520268       1
O               7.64125000     20.96690000     15.98920000     -0.00016948     -0.00254200      0.00880426       8
H               7.35184000     21.89050000     14.40240000     -0.00372109      0.00310155      0.00439548       1
H               9.15971000     21.70110000     16.67610000      0.00357310     -0.00107798      0.00028929       1
O              22.29900000      6.32291000     16.48470000     -0.00228202      0.00543760     -0.00230413       8
H              21.98660000      5.87527000     18.21780000     -0.00374966      0.00823274     -0.00055948       1
H              23.06890000      3.75081000     15.47880000     -0.00282620     -0.00267021     -0.00114466       1
O              13.22920000     22.41520000      5.87115000      0.00018928     -0.00757927     -0.00541494       8
H              14.03540000     22.49160000      4.22496000      0.00348052      0.00059314      0.00168925       1
H              11.57190000     21.58130000      5.59293000      0.00101737      0.00930659      0.00016000       1
O               2.86673000     17.62000000     10.33480000      0.00352910     -0.00553911     -0.00048181       8
H               2.19424000     16.18080000      9.43443000     -0.00315977      0.00101167      0.00310024       1
H               3.32885000     16.89650000     11.96610000     -0.01463380      0.00508075      0.00133961       1
O               2.68862000     17.24550000     15.27790000      0.00439782     -0.00627884     -0.00649927       8
H               2.39368000     16.18210000     16.72760000      0.00691950      0.00196766     -0.00132916       1
H               4.27029000     18.09670000     15.48900000      0.00168442      0.00187083      0.01293640       1
O               5.80982000      0.49783000      1.48696000      0.02687270     -0.01348140     -0.00204151       8
H               5.09515000      2.07059000      1.88154000     -0.01191750      0.01294270     -0.00778294       1
H              64.82530000    -44.33730000    166.56100000      0.00310683      0.00173296     -0.00220946       1
O              12.63350000      0.03001400     16.40530000      0.00008281      0.00483951     -0.00917987       8
H              13.93820000     -0.30273400     15.15980000     -0.00254381     -0.00387156      0.00694767       1
H              11.95180000      1.69193000     15.93840000      0.01032690     -0.00159714      0.00986855       1
O              21.57240000      0.60096400      0.71763100      0.00032073      0.00133889     -0.00210491       8
H              21.77630000     -1.08444000      1.38194000     -0.00331782     -0.00063582     -0.00655039       1
H              22.87700000      0.71597600     -0.58754600     -0.00367261      0.00598375     -0.00181981       1
O              20.59270000      7.03904000     12.28310000      0.00300555      0.00122960     -0.00459003       8
H              20.98590000      6.70923000     14.18450000      0.00387460      0.00384208     -0.00473611       1
H              18.76680000      6.78026000     12.20380000      0.00376625     -0.00148731     -0.00457346       1
O              13.42890000     16.22830000     15.99590000      0.00702205     -0.00843937     -0.01002230       8
H              11.95770000     15.58850000     15.15690000     -0.00263575      0.00574674     -0.00721974       1
H              12.88790000     16.38650000     17.76980000     -0.00022794     -0.00426492      0.00036128       1
O              23.22390000      1.87568000     15.18500000      0.00305363     -0.00035686      0.00676949       8
H              19.18760000     -1.20160000     14.62860000     -0.00691020      0.01618360     -0.00117014       1
H              23.57840000      1.46240000     13.46040000     -0.00698582     -0.00179543      0.00397019       1
O              20.11640000     19.27470000      6.05457000     -0.00056868      0.01035560      0.00867521       8
H              21.23500000     20.39310000      6.94374000      0.00712208      0.00202960      0.00600196       1
H              21.17710000     18.99320000      4.16481000     -0.00258682     -0.00393908      0.00384244       1
O               8.23123000     21.78320000      5.26959000      0.00398146      0.00064966     -0.00193010       8
H               7.49021000     22.20810000      3.57610000      0.00288697     -0.00092325     -0.00204963       1
H               8.30963000     23.49870000      5.99077000     -0.00345783     -0.00054752      0.00471456       1
O               8.98508000     16.93970000     13.67860000     -0.00154611     -0.00355073     -0.00044614       8
H               8.78089000     18.43320000     14.78800000     -0.00325341     -0.00748897     -0.00145667       1
H               9.41119000     17.74840000     12.10150000     -0.00659160     -0.00604406     -0.00211422       1
O              13.50180000      4.48832000      7.45929000      0.00467733     -0.00226224      0.00128843       8
H              14.09060000      4.28521000      9.17138000      0.00461224      0.00522591      0.00244984       1
H              13.69570000      2.90248000      6.57559000      0.00560034     -0.00583763      0.00476130       1
O               4.45557000      6.09414000     16.02280000      0.01843380      0.01111720     -0.00979999       8
H               3.90153000      6.20500000     14.28730000      0.00088335      0.00078242      0.01133440       1
H               6.03460000      7.03658000     15.99520000     -0.01375320     -0.01141220      0.00320863       1
O               6.35095000      1.09630000     12.39990000      0.00021634      0.00626122     -0.00358904       8
H               6.41486000      2.64709000     13.36550000     -0.00301648     -0.00255295     -0.00333449       1
H               7.03293000      1.50656000     10.74310000      0.00040675      0.00454819      0.00298295       1
O               7.51738000     18.57320000      9.14612000      0.00537485      0.01036690      0.00403757       8
H               7.38898000     19.98550000      8.01063000      0.00501125      0.00150969     -0.00507904       1
H               5.83502000     18.27800000      9.84619000      0.00441638     -0.00503393     -0.00796403       1
O              10.59290000     15.23900000      7.13939000      0.00054310      0.00124993     -0.00000439       8
H              12.03250000     15.38430000      8.22082000     -0.00003239     -0.00358591      0.00361273       1
H               9.61152000     16.75720000      7.47467000     -0.00618577     -0.00483034      0.00039470       1
O               0.91079300      0.32292800     10.19750000     -0.00158643     -0.00215520      0.00211193       8
H               2.19936000     -0.73196000     10.92250000     -0.00235349     -0.00336833      0.00077373       1
H               1.77708000      1.09580000      8.77368000     -0.00490310      0.00245414      0.00521368       1
O              20.77250000     14.22540000     18.65330000     -0.00377289      0.00198174      0.00593078       8
H              19.22640000     15.17180000     18.34570000      0.00617293      0.00524040      0.00688475       1
H              21.04160000     14.24780000     20.49690000     -0.00365338     -0.00576270     -0.00099151       1
O              -0.22509500      6.26626000     21.89590000     -0.00555532     -0.00951654      0.00200396       8
H               0.91982100      4.98185000     21.28610000      0.00005190     -0.00155203      0.00125423       1
H               0.79868500      7.75142000     22.14140000      0.00661800      0.01130250     -0.00162296       1
O              16.31470000     15.72180000      5.09396000      0.00412919     -0.00414287      0.00127369       8
H              17.57480000     16.95410000      5.46209000      0.00239528     -0.00405685     -0.00315696       1
H              15.94920000     14.92180000      6.69928000      0.00508119     -0.00221675     -0.00100349       1
O              22.05460000      8.42881000      7.35306000      0.00840161     -0.00491197      0.00246213       8
H              21.44140000      7.45809000      8.79259000     -0.00554719      0.00380633      0.00079138       1
H              23.13640000      7.34012000      6.38523000      0.00637129     -0.00919552      0.00379639       1
O              11.77560000     10.02180000      9.50131000      0.00575214     -0.00142992      0.00067965       8
H              12.18390000     11.71460000      9.00678000     -0.00070923      0.00157685      0.00554507       1
H              12.41260000      9.04932000      8.11918000     -0.00166534     -0.00368664     -0.00265671       1
O              22.36300000     18.71700000      2.17878000     -0.00305018     -0.01486290     -0.00445111       8
H              22.03790000     17.05110000      1.39019000     -0.00230141     -0.00924394      0.00293268       1
H              24.21160000     18.96500000      1.98359000     -0.01014340     -0.00095376     -0.00465382       1
O               2.51306000      5.44388000     11.30240000     -0.00833059     -0.02423030     -0.01028770       8
H               1.97728000      3.63455000     11.27180000     -0.00657063      0.00271376      0.02248370       1
H               0.87357100      6.43599000     11.30900000      0.00225119     -0.01186130     -0.00878008       1
O               8.59208000      2.99149000      7.83587000      0.00346987      0.00178018      0.00973928       8
H              10.39750000      3.25297000      7.87513000     -0.00231152      0.00258010      0.00404954       1
H               7.87876000      4.70409000      7.87917000     -0.00131043     -0.00253949     -0.00245315       1
O              18.18930000     12.88910000     13.16930000      0.03030150     -0.00117308      0.01037830       8
H              18.97700000     13.02350000     14.84690000     -0.00488718      0.00083172     -0.02082600       1
H              19.61280000     12.72220000     11.96450000     -0.01270910      0.00346354      0.01527900       1
