192
TotEnergy=-1103.45265000 cutoff=-1.00000000 nneightol=1.20000000 pbc="T T T" Lattice="24.44634000       0.00000000       0.00000000      -0.00000100      24.44634000       0.00000000      -0.00000100      -0.00000100      24.44634000" Properties=species:S:1:pos:R:3:force:R:3:Z:I:1
O              24.95030000     -2.45758000    -37.95300000     -0.13718200      0.08132990      0.01823490       8
H              23.63700000     -3.24507000    -36.86800000      0.01988500     -0.00085041     -0.01304250       1
H              26.35030000     -3.26658000    -38.10000000      0.12216500     -0.08352790      0.00055446       1
O              51.70390000     49.81620000      0.55012700      0.08347260      0.07749270     -0.03524540       8
H              53.45340000     49.78060000     -0.38111700     -0.05322810     -0.00089323      0.02914470       1
H              51.05380000     48.26550000      0.88945200     -0.02113700     -0.07484320      0.01252370       1
O              14.13520000      0.90859200     18.24590000     -0.06379290      0.05539410     -0.09989180       8
H              13.64250000      2.55612000     18.84080000      0.00906415      0.00688478      0.01202690       1
H              14.84610000     -0.00577600     19.40970000      0.05750510     -0.06221760      0.09442630       1
O              -3.15098000     -9.55765000     -2.70090000     -0.00876021     -0.02980700      0.00195227       8
H              -2.07317000    -10.72100000     -1.74366000      0.00028981      0.00486870     -0.00401947       1
H              -3.09079000     -7.95390000     -1.90172000      0.00562559      0.03030280      0.00533125       1
O               4.12107000     35.83360000     19.42700000     -0.02448930     -0.09322220     -0.01174740       8
H               3.02278000     34.27380000     18.63250000      0.04128210      0.06982190      0.02286900       1
H               5.05528000     34.71040000     20.61790000     -0.01027230      0.02113790     -0.00153839       1
O              -8.20819000     11.34960000      6.79511000      0.01780570      0.00450297      0.06971070       8
H              -9.09285000     12.87660000      7.05706000     -0.00808771      0.01960250      0.00163497       1
H              -8.34498000     10.99290000      5.12791000     -0.00573873     -0.02542600     -0.06806370       1
O              43.79330000     29.15060000     14.05790000     -0.06361450     -0.04081650      0.02778880       8
H              45.39840000     28.82490000     13.46410000      0.04624940     -0.00873805     -0.02705680       1
H              43.13670000     27.35420000     14.43560000      0.01166270      0.04285320     -0.00686177       1
O               1.54220000    -36.69880000      5.98311000     -0.04937810      0.02124930     -0.06798320       8
H               2.59434000    -37.86560000      5.16054000      0.02643610     -0.02447240      0.01136280       1
H               1.71724000    -36.04070000      7.56709000      0.02954270      0.00130300      0.05820440       1
O              33.15680000    -35.02450000     17.30450000     -0.08578300     -0.03377720      0.08062310       8
H              31.97110000    -36.57750000     18.57000000      0.01797590      0.08195580     -0.05476210       1
H              34.26990000    -36.32560000     17.13130000      0.05920150     -0.03774280     -0.03188850       1
O              10.58450000    -29.01250000    -24.95340000     -0.04552580     -0.03978110      0.01378590       8
H              11.91260000    -30.18160000    -24.49050000      0.00742679      0.00572078      0.00537951       1
H               9.10085000    -30.16360000    -24.31880000      0.03570670      0.03557800     -0.00918014       1
O             -12.25160000      5.44886000      8.16333000     -0.09544500     -0.05104920     -0.00082962       8
H             -11.32380000      6.33811000      9.26419000      0.07717840      0.06337490      0.04523690       1
H             -13.51950000      5.10727000      9.62306000      0.00937389     -0.01306310     -0.03952090       1
O             -10.20480000     28.94890000     49.55820000     -0.03099790     -0.00468395      0.00304057       8
H             -11.67190000     27.89770000     50.10410000      0.02352320      0.00596864      0.00303586       1
H              -8.88386000     27.75240000     49.15860000      0.00984834     -0.00209736      0.00896214       1
O               9.40394000    -30.85270000    -17.25560000     -0.06414490     -0.00347499      0.01617810       8
H               8.67152000    -31.69690000    -18.77970000      0.01368700      0.01234000      0.01340440       1
H               7.69981000    -30.56380000    -16.14050000      0.05546310     -0.01110730     -0.03121020       1
O              27.30910000     13.72320000     35.55680000      0.04799960     -0.01812320     -0.00377008       8
H              26.07090000     13.59630000     36.83330000     -0.02050150     -0.00357862      0.01395070       1
H              28.66590000     12.45010000     36.00710000     -0.02924170      0.02249670     -0.01375250       1
O               3.50427000      3.08236000      5.40684000      0.04276500     -0.05081110     -0.03992630       8
H               4.82624000      2.25540000      6.60004000     -0.04191020      0.01231450     -0.03023180       1
H               3.62477000      1.98322000      3.57478000     -0.00865977      0.03995430      0.06095870       1
O             -33.93460000     25.60880000     33.56100000      0.00531345      0.03855300     -0.01933570       8
H             -32.23770000     25.64820000     32.62080000     -0.04130390      0.00836453      0.01325540       1
H             -34.94640000     27.33710000     33.26360000      0.03702170     -0.05418330     -0.00148541       1
O             -32.43960000     12.97340000     22.81570000      0.06696480      0.09177660      0.10794700       8
H             -32.87720000     12.07340000     21.50480000     -0.03112440     -0.07096280     -0.10847900       1
H             -30.76000000     13.81680000     22.38200000     -0.02715830     -0.01990460      0.00546742       1
O             -21.42560000     64.70660000    -21.90490000     -0.02590440     -0.03643490      0.02309900       8
H             -21.86510000     63.45430000    -20.45170000      0.01562110      0.03075150     -0.01981640       1
H             -22.60370000     63.89410000    -23.05000000      0.00694537      0.00626433     -0.00820163       1
O              69.45180000     19.90430000     37.33340000      0.00379225     -0.06307670      0.06689780       8
H              68.12360000     21.09400000     37.33340000     -0.02384300      0.03042460      0.00609720       1
H              69.00000000     18.73890000     38.91970000      0.02544210      0.04683440     -0.05332530       1
O              60.17100000    -12.26930000      0.52864900     -0.09659780     -0.05599660      0.04216130       8
H              58.90800000    -13.62420000     -0.17954300      0.03096360      0.03703440      0.01807110       1
H              61.30880000    -12.01010000     -0.69238000      0.05775750      0.01607520     -0.05793310       1
O              29.67300000     18.43270000    -13.70580000      0.00324534     -0.05200910      0.02245010       8
H              31.26000000     18.28080000    -12.59610000     -0.02991080     -0.00391284     -0.01439560       1
H              28.74640000     16.59780000    -13.42200000      0.02791060      0.05755970     -0.01219320       1
O             -15.24540000      5.93830000     65.75120000      0.10019400     -0.02402690      0.02302000       8
H             -14.01890000      5.80049000     67.33670000     -0.03633530      0.00413410     -0.04071240       1
H             -16.87990000      6.10088000     66.22180000     -0.07068510      0.00482517      0.02534280       1
O              10.72720000      0.38845800      2.11600000     -0.01144430      0.00744939      0.08127360       8
H              10.62450000     -0.52989500      4.05800000      0.00320888      0.03832330     -0.04442020       1
H              11.29440000     -1.03873000      1.29254000      0.01131000     -0.03663190     -0.03532940       1
O              43.73390000      0.83190400     30.14620000      0.06059870      0.01169690      0.00900784       8
H              45.65750000      1.99924000     30.36330000     -0.06842670     -0.03327810     -0.00563094       1
H              44.14780000     -0.95559000     30.63230000      0.00709070      0.03781250     -0.00989081       1
O              -3.43528000     62.01350000     32.34750000     -0.01673240      0.00680293     -0.03196210       8
H              -5.08450000     61.41340000     31.56260000      0.02823100      0.00437373      0.01395760       1
H              -2.20476000     62.42290000     31.00380000     -0.01585110     -0.01660640      0.01664540       1
O               2.02702000     31.98600000     12.39710000      0.00015575     -0.07097870     -0.08379150       8
H               3.62969000     31.82620000     11.16240000     -0.05665490      0.01276700      0.04536880       1
H               0.70252100     30.54540000     11.46130000      0.05259710      0.05302430      0.04354330       1
O             -12.85390000     18.75340000     19.15930000      0.00849538     -0.03446290     -0.12454100       8
H             -13.98770000     17.39290000     18.63040000      0.01321020      0.00526177     -0.00473542       1
H             -13.30300000     18.92710000     20.74500000     -0.02462520      0.02241020      0.12487700       1
O              24.86280000     36.18190000     48.91470000      0.00637333     -0.00089831     -0.05151070       8
H              23.95920000     34.74560000     49.53580000     -0.00432754     -0.01318950      0.01702890       1
H              25.37440000     35.54610000     47.20520000     -0.00107740      0.01423920      0.02935390       1
O               7.72610000     27.39840000     22.91900000     -0.00099208     -0.01374530     -0.03585990       8
H               8.29308000     26.18000000     21.57680000     -0.00914035      0.01698320      0.01794170       1
H               8.92017000     27.07340000     24.22150000      0.00553716     -0.01009550      0.01743270       1
O               4.94127000    -24.27990000     16.32130000     -0.05935270      0.02699540     -0.05181960       8
H               4.00210000    -25.66930000     16.87980000     -0.00892057     -0.01706410      0.00930672       1
H               6.42806000    -24.18860000     17.14710000      0.07055550     -0.01000770      0.04175340       1
O               0.60490000     20.85260000      1.85653000      0.00136619     -0.00689403      0.03302280       8
H               2.02632000     19.69180000      2.00612000     -0.01065600     -0.00050609     -0.00191964       1
H              -0.17212000     20.81460000      3.63848000      0.00692149      0.00821080     -0.02973510       1
O              -1.06119000      3.07116000     11.08140000     -0.00965291      0.06532010     -0.08689430       8
H              -0.86820000      3.18487000      9.01318000     -0.02076760      0.00858498      0.08042730       1
H              -0.39079600      1.52651000     11.38710000      0.02996340     -0.06581550      0.01947300       1
O             -35.76050000     54.38030000    -28.43840000     -0.00281122      0.01384720     -0.01103770       8
H             -34.64550000     55.75730000    -28.96900000     -0.00789412     -0.00543222      0.00537443       1
H             -35.65500000     54.21330000    -26.56720000      0.00709620      0.00012803     -0.00695551       1
O               9.97109000     58.64310000    -18.56010000      0.05318720     -0.06427030     -0.03089560       8
H              10.66550000     56.90290000    -17.82450000     -0.01431650      0.04851410     -0.01803240       1
H              11.02010000     58.63230000    -20.22360000     -0.03422120      0.01007520      0.04899760       1
O             -40.82430000     40.70980000      2.35325000     -0.00258258     -0.04661940     -0.03078080       8
H             -39.71050000     39.22130000      1.90263000     -0.01005960      0.02838240      0.00883148       1
H             -42.48270000     40.07270000      1.67737000      0.01377340      0.01752780      0.02321470       1
O              15.40760000     34.85140000     18.62660000     -0.02863800      0.00332065      0.01505800       8
H              16.97130000     34.40590000     17.72710000     -0.00413514      0.00642786     -0.01765470       1
H              13.93360000     35.61740000     17.76540000      0.03654540     -0.01801470     -0.00220093       1
O             -17.75180000    -14.99660000     10.53250000     -0.02118080      0.01305740     -0.05955880       8
H             -16.49730000    -14.91030000      9.19119000     -0.01456580      0.00824816     -0.00165945       1
H             -16.74650000    -15.41540000     11.84800000      0.03569950     -0.01400570      0.06121100       1
O             -45.18060000      5.34484000     16.72020000      0.00429857      0.00715391      0.02029880       8
H             -44.70820000      3.56468000     16.68550000     -0.01489810      0.00267067     -0.00809718       1
H             -46.05970000      5.90971000     15.20690000      0.00685331     -0.00475663     -0.01375630       1
O             -19.59020000    -16.21820000     28.53460000      0.01127300     -0.06227110      0.02137590       8
H             -17.99680000    -16.39830000     29.48590000     -0.01062110      0.02099750     -0.01058010       1
H             -20.17800000    -18.06810000     28.89860000      0.00087118      0.04116250     -0.01361020       1
O              14.75450000     17.39940000     25.57140000     -0.01909070      0.04203650      0.06993920       8
H              15.03600000     17.28830000     27.47740000     -0.01151400     -0.00021814     -0.03995690       1
H              15.63670000     16.09930000     24.87960000      0.02718710     -0.05408520     -0.02627380       1
O             -18.27450000     -0.17033600     33.11880000     -0.19340300     -0.06711830      0.07034770       8
H             -16.69810000      0.04078900     32.88220000      0.16838300      0.00117159     -0.02050800       1
H             -18.68320000     -1.81529000     34.24920000      0.02518790      0.06536180     -0.04898590       1
O              39.66800000      8.05096000     35.72890000     -0.12167000     -0.08413670      0.05853410       8
H              40.68720000      6.95479000     36.53910000      0.06323830     -0.03037530      0.02375320       1
H              40.06500000      9.35478000     34.86170000      0.06357050      0.11411700     -0.07991500       1
O              -4.43375000    -32.25900000     -7.30473000      0.00060073      0.03196120      0.11009300       8
H              -4.19126000    -33.34120000     -5.63454000      0.00466826      0.03568730     -0.04149620       1
H              -4.55174000    -33.40580000     -8.53231000     -0.00354704     -0.06927190     -0.07264480       1
O              58.21820000    -21.09390000    -12.28690000     -0.08646870     -0.02004090      0.07468170       8
H              58.02690000    -20.95900000    -10.20810000      0.01897690      0.00588799     -0.07856450       1
H              56.32190000    -21.72250000    -12.59130000      0.06954410      0.01931590      0.00036547       1
O               9.33809000     -0.72524200     19.05680000      0.03503360      0.01804050     -0.00795629       8
H              11.18070000     -0.24511600     18.63820000     -0.03523520     -0.00396923      0.00402507       1
H               9.52013000     -2.51264000     19.26040000     -0.00280667     -0.00623899      0.00259067       1
O             -32.49210000     -3.04379000     47.23170000     -0.00656183      0.02274540      0.05655070       8
H             -32.24220000     -3.23689000     45.53700000      0.00923758     -0.00850654     -0.06936070       1
H             -33.28530000     -4.56347000     47.78710000     -0.00429466     -0.00473738      0.01149070       1
O              10.91800000    -14.50740000     -9.66519000     -0.10925600      0.03423890      0.04633610       8
H              10.05080000    -16.12030000     -9.56103000     -0.00214449      0.00149100      0.01815730       1
H              12.30440000    -14.96050000    -10.39910000      0.12438700     -0.02917970     -0.06701200       1
O              19.84220000     18.39170000      8.55847000     -0.02139110     -0.00919005     -0.05159770       8
H              19.96100000     18.50370000     10.34120000      0.00777857      0.00554733      0.03147160       1
H              20.00650000     16.66580000      8.05397000      0.00344570     -0.01336950      0.00585898       1
O              16.40470000     20.28190000     -6.85509000      0.07182020     -0.04512990      0.00219304       8
H              14.82440000     19.50540000     -6.61760000     -0.02424430     -0.01349310      0.00372176       1
H              17.85700000     18.63400000     -6.91450000     -0.04835800      0.05511730     -0.00010683       1
O              22.63400000     45.98150000     30.84580000     -0.00592791     -0.00558867     -0.03525930       8
H              21.46920000     44.60340000     31.34760000      0.01183630      0.00453921      0.01041780       1
H              23.88290000     46.09810000     32.13180000      0.00373855      0.00225868      0.02017990       1
O              -7.21527000      9.18018000      2.08474000      0.00682299      0.06688210     -0.01199800       8
H              -7.60960000     10.82850000      1.05215000      0.00765381     -0.05421860      0.01469910       1
H              -8.10137000      7.77899000      1.41621000     -0.01428540     -0.01095130     -0.00783236       1
O              17.16950000    -25.20990000     13.83380000     -0.01485240     -0.01759360      0.05810090       8
H              16.21850000    -24.23850000     12.66010000     -0.01820650      0.00231717     -0.01039650       1
H              16.08510000    -25.78110000     15.44260000      0.03845990      0.01900070     -0.06049970       1
O              -2.65937000     13.17160000     37.54360000      0.00067517     -0.02811370      0.01264100       8
H              -2.63244000     11.48370000     38.45060000     -0.00623932      0.03468150     -0.02506770       1
H              -3.05371000     12.93750000     35.73730000      0.00584014     -0.00471849      0.01566860       1
O              45.80640000     44.63250000     -1.94483000      0.00711306      0.00498191      0.02096070       8
H              47.21610000     45.08330000     -0.76529900     -0.02489990     -0.00627054     -0.01164500       1
H              44.19180000     45.33560000     -1.29622000      0.02285850     -0.00703485     -0.00614214       1
O              24.08860000      7.21874000    -29.07010000      0.08260110      0.09506300     -0.08750300       8
H              25.46000000      6.52202000    -30.25010000     -0.03414030     -0.00003909      0.03107040       1
H              23.26290000      6.02578000    -28.28370000     -0.04860110     -0.09985750      0.06052040       1
O             -13.67460000     47.38250000      6.85773000      0.05515180     -0.04534250      0.00524128       8
H             -11.95060000     47.88130000      7.62915000     -0.03688420     -0.00146513     -0.01604720       1
H             -13.60760000     45.35970000      6.76111000     -0.01807140      0.05333450      0.00622603       1
O               9.37586000    -31.47410000     38.02330000     -0.00564760     -0.00700683      0.01692140       8
H               8.90866000    -32.94530000     39.27080000      0.01597200      0.05133410     -0.02063260       1
H               9.96542000    -29.81410000     38.68280000     -0.01059210     -0.04123610      0.00571853       1
O              -1.35853000     28.69730000      6.21666000     -0.05053210      0.00709733      0.00461825       8
H               0.25140100     28.08450000      5.94215000      0.06077130     -0.01757330     -0.01803180       1
H              -1.56340000     30.13210000      5.05479000     -0.00440145      0.00038085      0.00022525       1
O              -9.33061000     -7.94133000      6.65529000     -0.02210560      0.00005899     -0.00502139       8
H             -10.97970000     -7.60575000      7.44238000      0.01328880      0.00384810     -0.00842808       1
H              -8.24354000     -6.50554000      6.86347000      0.00173788      0.00181230      0.01441800       1
O              -4.53791000      8.97800000     16.54900000      0.02230320     -0.04702190      0.05150010       8
H              -3.51792000      8.41420000     18.26510000     -0.02884100      0.01918240     -0.07324020       1
H              -4.86815000      7.27541000     15.59890000      0.00922749      0.03201510      0.02528570       1
O              22.39550000    -16.75100000      2.35588000     -0.03625890      0.02925990      0.00552479       8
H              21.96740000    -17.98740000      1.11218000      0.00944853     -0.01720230     -0.01012950       1
H              20.73450000    -15.80290000      2.42322000      0.02290190     -0.01709310      0.00649396       1
O              22.84990000      3.40552000     47.84120000      0.03857580     -0.01922400     -0.01049980       8
H              21.62030000      2.18612000     48.33880000     -0.02554860     -0.00126257      0.00216331       1
H              24.35750000      2.26225000     47.72000000     -0.01455520      0.03177750      0.00537505       1
O              18.56670000     25.96380000     49.54740000      0.02766280      0.00489376      0.06309760       8
H              19.10230000     25.48250000     51.49800000     -0.02358540      0.01855100     -0.04316910       1
H              17.58970000     24.57740000     49.06580000     -0.01433800     -0.03167050     -0.01280270       1
O             -17.20740000      8.83014000     23.53980000     -0.00577775      0.02839720      0.02469290       8
H             -16.86690000      7.19139000     23.03640000      0.01246230     -0.04485480     -0.02335650       1
H             -17.83670000      8.45600000     25.24390000     -0.00948371      0.01395520     -0.00193849       1
