192
TotEnergy=-1103.45588000 cutoff=-1.00000000 nneightol=1.20000000 pbc="T T T" Lattice="24.14986000       0.00000000       0.00000000      -0.00000100      24.14986000       0.00000000      -0.00000100      -0.00000100      24.14986000" Properties=species:S:1:pos:R:3:force:R:3:Z:I:1
O              21.78560000      0.01182100    -28.22040000     -0.11167300     -0.03200240     -0.07286950       8
H              22.67780000      0.39081100    -26.86860000      0.06078960      0.02874360      0.09404100       1
H              19.94980000     -0.42018000    -27.69530000      0.05991190      0.00671846     -0.02378320       1
O              49.17630000     47.50950000      4.70342000      0.09868260     -0.04832510     -0.02471800       8
H              50.84330000     46.21100000      5.61714000     -0.04866360      0.04213090     -0.02744120       1
H              50.09030000     47.34310000      2.89450000     -0.04849210     -0.00157157      0.05445590       1
O              11.35990000      0.25874700     13.82320000      0.06664080      0.02466600     -0.02199180       8
H              13.19660000     -0.09492100     13.06400000     -0.04835520     -0.01627350      0.03792520       1
H              10.35200000     -1.16067000     14.18460000      0.00189401     -0.03040180     -0.00198364       1
O              -5.79937000     -7.57651000      0.58713800      0.02061130      0.07079960     -0.00523619       8
H              -4.67109000     -6.31774000     -0.43924700     -0.02621870     -0.04288380      0.02204910       1
H              -6.81532000     -6.35961000      1.62580000      0.01468730     -0.02402390     -0.02283940       1
O               8.37109000     28.99900000     20.29450000      0.00053527     -0.05126470     -0.02504780       8
H               8.51810000     30.60280000     20.94690000      0.00810694      0.04745290      0.01138480       1
H               9.87225000     28.76110000     19.14390000     -0.01526690      0.01201740      0.02016370       1
O              -2.55576000     12.15280000     11.88840000     -0.04951550     -0.03810200      0.02777580       8
H              -3.27355000     11.60320000     10.34380000     -0.00948828     -0.00615681     -0.01536900       1
H              -1.27240000     13.21670000     11.48660000      0.05704880      0.04935540     -0.01846560       1
O              44.43220000     25.32150000     11.17590000      0.02841970      0.01325370      0.06244300       8
H              45.69330000     25.17520000     12.71320000     -0.03282180     -0.00100748     -0.06824190       1
H              44.78640000     24.64810000      9.36139000      0.00252504     -0.00501667      0.02947010       1
O              -1.74245000    -28.73310000     12.27410000      0.03148570      0.01517580     -0.09336320       8
H              -0.38144400    -29.80150000     11.09130000     -0.04727870      0.02939360      0.04760330       1
H              -2.45014000    -27.41620000     10.92420000      0.01948020     -0.04741590      0.05046820       1
O              29.25850000    -34.90740000     18.27200000     -0.01995140      0.03525800     -0.01851540       8
H              30.26580000    -35.92890000     19.34790000      0.02216840      0.00160873      0.00748959       1
H              29.64820000    -33.04630000     18.28700000      0.00390585     -0.03175350      0.00781029       1
O               7.96546000    -28.11650000    -25.26470000      0.05074120     -0.07934860      0.03643170       8
H               9.82756000    -28.88840000    -25.05710000     -0.05890890      0.04000380     -0.01053190       1
H               7.08983000    -29.45250000    -24.06070000      0.01117810      0.03837080     -0.03443520       1
O             -11.80480000      2.58115000      5.62846000     -0.00096992     -0.02188110      0.02699920       8
H             -13.42710000      2.07917000      5.00304000     -0.00755910      0.00515173     -0.00442994       1
H             -11.02450000      3.71082000      4.50689000      0.00795364      0.01239410     -0.01946010       1
O              -9.38113000     29.81610000     49.83660000     -0.05598720     -0.10183900     -0.02036220       8
H              -8.84460000     29.59170000     48.14350000      0.00623822     -0.01184280     -0.01544480       1
H              -8.89120000     31.30760000     50.31600000      0.04789430      0.11357000      0.03867050       1
O              14.06800000    -29.00760000    -14.60330000      0.10831600     -0.03570940     -0.00147636       8
H              15.30250000    -30.66570000    -14.62480000     -0.05292210      0.04729530     -0.00578322       1
H              12.40240000    -29.43100000    -14.47810000     -0.05538110     -0.02251830      0.00598372       1
O              25.25920000     15.65720000     34.69880000      0.06101340     -0.04523600     -0.01881300       8
H              25.81260000     14.73730000     33.09310000     -0.02486420      0.02826790      0.02121940       1
H              26.77550000     14.90280000     35.79090000     -0.04448500      0.02121100     -0.00903755       1
O               1.44692000      2.04411000     -0.98937600     -0.01298910      0.00931960      0.00201295       8
H               1.94651000      3.15372000     -2.45100000      0.01574270     -0.03257470      0.03226610       1
H               2.72790000      1.07118000     -0.05723500     -0.00260853      0.02371140     -0.03327860       1
O             -27.95030000     22.84390000     31.50580000      0.02435880      0.00022960     -0.01484560       8
H             -26.49660000     23.14420000     30.30030000     -0.03259660     -0.01006260      0.00472520       1
H             -29.70030000     22.72150000     30.88710000      0.01643880      0.00420123     -0.01276080       1
O             -32.17570000     12.17260000     23.17200000     -0.04463770     -0.06101560     -0.00224628       8
H             -32.73740000     11.53860000     21.46100000      0.00177413      0.01391110      0.02215770       1
H             -30.95180000     13.35270000     22.91340000      0.04092510      0.05051530     -0.01268030       1
O             -15.93630000     61.26800000    -19.83460000     -0.00350110     -0.01921280     -0.09890740       8
H             -15.67130000     61.48410000    -18.15550000      0.01379940     -0.01030030      0.07055070       1
H             -15.45850000     59.59580000    -20.60640000     -0.00392526      0.02332970      0.02849490       1
O              64.67960000     22.67930000     37.41360000     -0.01566220     -0.02716900     -0.02788270       8
H              65.78980000     24.11260000     36.64980000     -0.01222290     -0.05639980     -0.00186870       1
H              64.32700000     20.85970000     36.50040000      0.02290580      0.08570010      0.01948810       1
O              55.62180000    -23.01640000      4.79815000      0.02968800     -0.02956000      0.11778300       8
H              54.22860000    -22.09760000      5.33455000     -0.02863860      0.02349190      0.01910240       1
H              55.63990000    -22.82900000      3.15454000      0.00172441      0.01167980     -0.13726600       1
O              31.92440000     18.48090000    -14.48400000     -0.00249872      0.03807470      0.01426950       8
H              32.25870000     16.86070000    -15.06080000      0.00746921     -0.03979380     -0.00994163       1
H              32.33620000     18.41740000    -12.66600000     -0.00717972      0.01161220     -0.00824399       1
O             -10.56030000      7.10675000     60.86940000      0.00095725     -0.02825360     -0.00864591       8
H             -11.49120000      5.57553000     60.16950000      0.00641099      0.03027900      0.00566964       1
H              -8.74016000      6.69172000     60.81820000     -0.01301820     -0.00064436      0.00156336       1
O               7.20971000      1.13099000     -0.04983400     -0.00476754      0.04984960      0.00656165       8
H               7.52700000     -0.60928200     -0.50819900      0.01189030      0.00772584     -0.01990950       1
H               7.80720000      2.72883000     -0.98320800     -0.00821975     -0.06053910      0.00201285       1
O              45.09480000      5.37209000     23.36440000      0.04924940      0.05340320      0.06698880       8
H              44.72260000      6.97843000     24.59170000     -0.00805153     -0.05062610     -0.03840620       1
H              46.80840000      4.91809000     24.20610000     -0.04566220     -0.00392156     -0.03335300       1
O              -3.60899000     62.38950000     28.80280000      0.02680020     -0.08428780      0.10295900       8
H              -3.90425000     63.45630000     27.59640000     -0.03092920      0.08735710     -0.10771300       1
H              -1.80963000     62.57670000     29.13930000      0.00037235     -0.00688103      0.00416823       1
O               8.76312000     37.61310000      9.61714000      0.00307135      0.02140350     -0.05155980       8
H               7.70297000     37.30190000     10.93050000     -0.05019840     -0.00995492      0.04629350       1
H              10.27870000     36.89330000     10.16410000      0.04619360     -0.01603110      0.00411641       1
O             -18.00310000     18.62860000     18.09640000      0.14616000     -0.05270420      0.05670010       8
H             -19.47380000     19.29330000     17.81350000     -0.12033500      0.06352120     -0.01037470       1
H             -17.11120000     19.23360000     19.74330000     -0.03611240     -0.00736731     -0.03432270       1
O              34.22430000     32.47410000     50.18770000      0.08469620      0.03690910      0.00110700       8
H              35.80730000     31.45940000     49.85310000     -0.04211770      0.00562163      0.00402210       1
H              32.64850000     31.78880000     50.01700000     -0.04723810     -0.04217470     -0.00171985       1
O              13.54250000     35.30390000     19.16300000     -0.00134415     -0.07249390     -0.00825563       8
H              13.36020000     36.34050000     17.76210000      0.00031113      0.04832480     -0.03479270       1
H              13.52480000     33.64820000     18.18720000      0.00234479      0.01903080      0.03180180       1
O               2.20401000    -27.50820000     24.19630000     -0.00031743     -0.05120050      0.00892304       8
H               0.70754000    -28.07510000     23.16840000      0.02847360      0.00281918      0.02108030       1
H               2.95923000    -29.12680000     24.98320000     -0.02840770      0.04600840     -0.02754530       1
O               1.45285000     13.69470000      5.34516000      0.04633810     -0.08388590     -0.00740406       8
H               2.04491000     11.57290000      5.12252000     -0.03405080      0.09843460      0.01096460       1
H               2.89257000     14.68450000      4.73066000     -0.01171040     -0.01119870     -0.00208908       1
O               1.99232000      1.71230000     14.92530000      0.02956130      0.21669800      0.00476019       8
H               1.82884000      0.14842800     15.21410000     -0.01332060     -0.16584600      0.04522780       1
H               2.31846000      2.88057000     16.59950000     -0.01041330     -0.05247750     -0.05071020       1
O             -35.53820000     53.83390000    -30.22090000     -0.00857511     -0.01442460     -0.03777980       8
H             -35.58400000     53.19760000    -31.99010000      0.00327940      0.01615120      0.02470450       1
H             -34.40370000     52.68660000    -29.35160000      0.00999892      0.00634023      0.00434007       1
O               2.07287000     52.18070000    -18.01240000      0.01042110     -0.03211830      0.03547740       8
H               2.45669000     51.63230000    -16.22970000     -0.00091453      0.02432180     -0.02445620       1
H               1.80808000     50.39460000    -18.60140000     -0.01382900      0.01535950     -0.01292710       1
O             -35.02040000     38.93230000      2.89320000     -0.00267033      0.01194360      0.00787114       8
H             -34.06120000     37.85860000      1.77344000     -0.00811248     -0.00550517     -0.00865809       1
H             -36.81060000     38.50430000      2.94287000      0.01297500     -0.00860000     -0.00057447       1
O              22.69340000     32.21530000     14.42800000      0.01575990     -0.00772605     -0.01064390       8
H              24.25590000     31.89400000     13.50420000      0.00612080     -0.01894980      0.00243147       1
H              22.44320000     33.78810000     13.51520000     -0.01901020      0.01869960      0.00617632       1
O             -13.99700000    -20.53350000     10.84260000      0.03825190     -0.04977920     -0.05154720       8
H             -13.29560000    -21.29220000      9.14002000     -0.02471910      0.03828830      0.04258330       1
H             -13.44740000    -22.11410000     11.92790000     -0.02565060      0.02805420      0.00045326       1
O             -45.02980000      4.54947000     19.06610000     -0.07674450     -0.10991300     -0.00768996       8
H             -45.78490000      6.02123000     19.03780000     -0.04892750      0.10579600     -0.00219938       1
H             -43.38200000      4.74123000     19.06820000      0.12447000      0.01327790      0.00591256       1
O             -21.53030000    -16.14110000     35.19920000     -0.00260586     -0.00897684     -0.08509640       8
H             -20.71300000    -17.89710000     34.70790000     -0.01821540      0.04079090      0.02072440       1
H             -22.19150000    -15.43250000     33.35270000      0.01574960     -0.02843050      0.07566870       1
O              16.38360000     14.76960000     32.10450000      0.04795790      0.00298953     -0.05200460       8
H              18.07200000     14.64010000     31.10040000     -0.00585191     -0.00418069      0.04557780       1
H              15.70850000     14.80670000     30.40760000     -0.04015720      0.00282310      0.00218844       1
O             -23.73380000     -3.34895000     41.56320000      0.02678490      0.02269810      0.06163640       8
H             -24.62890000     -1.86520000     42.27580000      0.00216076     -0.01217360      0.00536968       1
H             -24.38070000     -3.46615000     39.98940000     -0.02923120     -0.01437340     -0.07280040       1
O              43.10800000      9.12672000     31.96230000     -0.02730750     -0.01520170     -0.06426970       8
H              42.53160000      8.71452000     30.07030000      0.00998557      0.01336640      0.07337690       1
H              42.31220000      7.96231000     33.18200000      0.01077960      0.00111641     -0.01591510       1
O             -10.57900000    -33.69550000     -9.22193000     -0.07661080     -0.02300560      0.01865350       8
H              -9.05755000    -32.95250000     -9.32457000      0.07430800      0.03875890     -0.00252485       1
H             -10.72380000    -34.67250000    -10.75120000      0.00236600     -0.01035830     -0.01156490       1
O              53.08870000    -20.82680000    -13.49960000      0.00276949     -0.01097260      0.06638690       8
H              54.85930000    -20.30560000    -13.45270000      0.00422213     -0.00650084     -0.00843259       1
H              52.84300000    -21.45320000    -11.60800000     -0.00875560      0.01480850     -0.05949640       1
O              15.36390000     -2.09136000      5.54928000      0.06303460     -0.07876640     -0.00921685       8
H              14.10690000     -1.04026000      5.89876000     -0.06938480      0.08271250      0.01312790       1
H              14.93500000     -3.41203000      6.80367000      0.00840797      0.00217417     -0.00288877       1
O             -33.56370000     -6.00227000     44.18510000      0.00828480     -0.01244660      0.03669780       8
H             -32.76330000     -7.69268000     44.02850000     -0.00908452      0.03095570      0.00483579       1
H             -33.56910000     -5.58350000     46.06150000      0.00083929     -0.01215560     -0.03883130       1
O               3.92646000    -11.31860000    -10.80100000      0.01078460      0.02665690     -0.02407240       8
H               4.03084000    -11.43620000     -9.03335000      0.00802652      0.00589139      0.03869410       1
H               3.70017000    -12.96480000    -11.38350000     -0.00686766     -0.03825590     -0.01781030       1
O              18.95410000     16.33620000     14.39330000      0.01332630      0.06558850      0.01511410       8
H              20.47740000     17.40750000     13.91320000     -0.03674620      0.01057250      0.00938971       1
H              19.76310000     14.94910000     13.80340000      0.01448690     -0.07713680     -0.02796610       1
O               9.50522000     19.13530000     -9.66926000      0.05672390     -0.02196990     -0.05828550       8
H              10.60140000     17.58470000     -9.95219000     -0.02187040      0.03451830      0.02370580       1
H               8.37273000     18.92080000     -8.33796000     -0.02573450     -0.01514300      0.03389230       1
O              23.86760000     57.05630000     30.63630000      0.02386240     -0.03466010     -0.01575260       8
H              22.03260000     56.94180000     30.56820000      0.00644762      0.00189270      0.01514830       1
H              24.51820000     55.26910000     30.40420000     -0.01455380      0.02437500      0.00206501       1
O              -5.24481000      9.25050000      2.03686000      0.03026300      0.02156360      0.00000174       8
H              -3.87280000     10.36070000      2.70865000     -0.02617670     -0.00961133     -0.01037940       1
H              -6.06327000     10.26540000      0.65102400     -0.00018089     -0.00489347      0.01658010       1
O              17.20400000    -25.68290000     18.39720000     -0.01635560      0.03324520      0.26624600       8
H              16.19850000    -27.18350000     19.18020000      0.02617590      0.03419920     -0.00399487       1
H              17.02730000    -26.21800000     16.96320000     -0.01685580     -0.06392740     -0.25375100       1
O              -1.60025000     17.92330000     45.30360000     -0.00820888     -0.06509240     -0.02355640       8
H              -2.06212000     16.01780000     44.56050000      0.00688156      0.07128510      0.02808610       1
H              -0.88617900     18.76360000     43.81730000     -0.00573798     -0.00116924      0.00514263       1
O              37.85620000     43.80700000      1.06103000      0.00044519      0.01221230      0.00884965       8
H              38.18750000     44.81840000      2.59370000      0.00163451     -0.00228470     -0.01445000       1
H              37.60800000     42.12980000      1.71086000     -0.00303665     -0.01249990      0.00433927       1
O              19.84600000     13.92600000    -28.67840000      0.02117750     -0.07464860     -0.01846790       8
H              20.57510000     12.05650000    -28.23060000     -0.02292650      0.06183770     -0.02753290       1
H              19.54010000     13.82590000    -30.55930000      0.00724031      0.00672966      0.03918950       1
O             -18.49540000     40.98720000      2.25394000      0.00630785      0.01177080      0.00126196       8
H             -17.24220000     39.72980000      2.61325000      0.00225130     -0.02658300     -0.00386823       1
H             -18.04790000     42.13210000      3.59558000     -0.01362770      0.01679120      0.00537453       1
O               5.27577000    -27.36950000     29.85190000      0.00220650     -0.02162420      0.01394750       8
H               5.87330000    -28.18160000     31.42940000     -0.00362897      0.00861479     -0.00537536       1
H               6.53076000    -26.06720000     29.44530000     -0.00763593      0.00787950      0.00326897       1
O               5.08769000     32.11060000      1.94544000      0.08505750      0.02370840     -0.07959300       8
H               3.78944000     31.83650000      2.96249000     -0.07859820     -0.01804320      0.04976930       1
H               4.60393000     32.72300000      0.24184300     -0.01334610     -0.00725722      0.02576240       1
O             -10.64540000    -12.34830000     10.81810000     -0.00290317      0.03159610     -0.01777810       8
H             -10.65480000    -14.10710000     11.31570000      0.00967203     -0.01660290     -0.00608295       1
H              -9.45241000    -11.72570000      9.48297000     -0.01014120     -0.01965700      0.02241930       1
O              -5.59070000      5.91668000     11.96950000      0.00724650      0.07941160      0.02211000       8
H              -4.10629000      6.70949000     12.86520000     -0.02334790      0.00126740     -0.00892322       1
H              -4.95125000      4.32291000     11.94950000      0.01429410     -0.07692970     -0.01675830       1
O              26.89190000    -13.82410000     -2.28337000     -0.08039070     -0.12762600      0.00962678       8
H              27.62970000    -12.38810000     -2.57874000      0.04870500      0.11251400     -0.03014630       1
H              25.48910000    -14.11390000     -3.54307000      0.02309790      0.01091770      0.02429300       1
O              22.18970000      8.92046000     43.45360000     -0.00076336     -0.02580170      0.02145790       8
H              21.64800000      7.77985000     44.91950000      0.01266980      0.00950232     -0.03943310       1
H              22.40450000      8.02327000     41.76280000     -0.00994959      0.01693740      0.02714900       1
O              16.31520000     27.42860000     45.01940000      0.06331920     -0.04768430     -0.01844390       8
H              18.26590000     27.79110000     45.25850000     -0.06365020     -0.01064730     -0.00683180       1
H              16.29870000     25.62250000     44.12110000      0.00451178      0.05172330      0.02504560       1
O             -15.47130000     10.72510000     21.11730000     -0.08439960     -0.01066870     -0.00024377       8
H             -13.94680000     11.06930000     20.43410000      0.07274460      0.01326490     -0.02358870       1
H             -15.32630000     10.38380000     22.84120000      0.01271690     -0.00378411      0.02829050       1
