192
TotEnergy=-1103.42285000 cutoff=-1.00000000 nneightol=1.20000000 pbc="T T T" Lattice="24.05554000       0.00000000       0.00000000      -0.00000100      24.05554000       0.00000000      -0.00000100      -0.00000100      24.05554000" Properties=species:S:1:pos:R:3:force:R:3:Z:I:1
O              20.53700000      3.32470000    -31.55780000     -0.01262250      0.00609566     -0.05271700       8
H              21.40830000      3.11140000    -30.08890000      0.04018020      0.00744187      0.06876340       1
H              19.21550000      2.11714000    -31.48440000     -0.02654980     -0.01719990     -0.00954531       1
O              46.64160000     44.09970000     10.79540000     -0.00947678      0.00368898     -0.03000980       8
H              48.30150000     43.37810000     10.93010000     -0.00122649     -0.01019100     -0.00594816       1
H              46.22720000     44.14350000      8.90669000      0.01044130      0.00687398      0.03745940       1
O              10.32360000      1.10891000     16.70130000      0.04672680     -0.08066420     -0.01350970       8
H               8.77407000      0.42168500     16.16680000     -0.04166760      0.01211700     -0.00194514       1
H              11.10660000     -0.72037000     16.35450000     -0.00604876      0.07044250      0.01762190       1
O              -4.64534000     -9.15721000     -1.28136000     -0.01718840      0.01414730      0.01361230       8
H              -5.55874000     -7.55241000     -1.59262000      0.01437810     -0.01789480      0.00529019       1
H              -4.91236000     -9.48661000      0.55672700     -0.00036995      0.00526668     -0.01993610       1
O               6.86657000     33.26540000     20.94550000      0.09291110      0.00827055     -0.05628670       8
H               7.18993000     34.88650000     19.87120000     -0.02334510     -0.04081080      0.02955790       1
H               8.75976000     32.16810000     20.44780000     -0.08299430      0.02941300      0.02717410       1
O              -2.22389000     14.74440000      7.21169000      0.00554067     -0.05198890     -0.02943070       8
H              -1.15381000     13.38680000      6.33131000     -0.02006950      0.03732450      0.02714600       1
H              -1.14779000     16.14360000      7.42760000      0.01602880      0.00867245      0.00596360       1
O              38.12500000     22.83020000     11.45180000      0.00140638      0.00285634      0.02841850       8
H              38.46120000     22.69320000      9.66673000     -0.00309435     -0.01469120     -0.00584069       1
H              37.30470000     21.38160000     12.30060000     -0.00085209      0.01369040     -0.02788410       1
O               0.11383500    -24.29630000     14.78190000     -0.00644440      0.03172510      0.02537480       8
H              -0.08353900    -25.74910000     13.65730000     -0.02446490      0.02378030      0.00425030       1
H              -1.31838000    -23.00630000     15.25730000      0.02765050     -0.04634110     -0.02986570       1
O              30.47480000    -34.77310000     17.44440000     -0.06216700     -0.01108630      0.01071600       8
H              32.14030000    -34.52970000     17.11440000      0.07417260      0.00212314     -0.02535230       1
H              30.14030000    -33.28630000     18.40130000     -0.01755390      0.00866427      0.01216820       1
O               9.11828000    -25.26450000    -22.59550000     -0.00837139     -0.02288140     -0.01133190       8
H              10.49420000    -25.36740000    -23.83350000     -0.00032493      0.01354460      0.01193710       1
H               9.21079000    -23.97910000    -21.32660000      0.00787723      0.00768902      0.00449647       1
O             -11.11100000      4.48314000      5.95256000     -0.01232710     -0.01008560     -0.01698830       8
H             -12.86140000      3.77155000      5.58123000      0.03455270      0.01926520     -0.00057590       1
H             -10.47430000      5.69552000      4.63582000     -0.02430070     -0.01673180      0.01652290       1
O             -10.35520000     32.45750000     50.50030000     -0.07360900      0.04993670      0.03179620       8
H             -10.31700000     31.55540000     49.02160000      0.01188740     -0.02713630     -0.04219100       1
H             -12.34050000     33.25700000     50.47310000      0.06609520     -0.02242270      0.02502230       1
O              14.20670000    -29.69160000    -21.06410000     -0.10951600     -0.01110640     -0.02733030       8
H              15.27980000    -30.83440000    -20.20750000      0.01037060     -0.02575030      0.00627270       1
H              12.18270000    -30.63060000    -21.36350000      0.10019600      0.03445410      0.01180520       1
O              26.09540000     15.71380000     34.29980000      0.05041380     -0.00318688     -0.00313663       8
H              27.87000000     15.55520000     33.63330000     -0.03559170      0.01066450      0.00511547       1
H              26.42080000     15.24210000     36.02550000     -0.01091530     -0.00197662      0.00487493       1
O              -1.16288000      2.97546000     -2.69732000     -0.07767420     -0.03859870     -0.00566390       8
H               0.49914700      3.38048000     -2.47159000      0.05531340      0.01079330      0.00723833       1
H              -1.50829000      1.14392000     -2.14048000      0.01858820      0.03233900     -0.00437837       1
O             -26.54330000     21.51120000     29.90740000     -0.04216170     -0.01622640     -0.00094918       8
H             -28.27030000     22.16200000     29.89050000      0.00753513     -0.01151590     -0.00331618       1
H             -25.59040000     22.98710000     30.12200000      0.03016380      0.02071740      0.00005651       1
O             -30.04880000      9.89358000     21.37840000     -0.01247670      0.05611620     -0.00167714       8
H             -31.12950000      9.38352000     19.96770000      0.00217950      0.01120130      0.01501280       1
H             -30.30370000     11.86170000     21.68770000      0.01237270     -0.06402490     -0.01285080       1
O             -14.82570000     58.25540000    -20.07170000     -0.01390780      0.00365180      0.03239820       8
H             -14.88580000     58.94190000    -18.08600000     -0.00392356     -0.03082280     -0.06109350       1
H             -16.14570000     56.94870000    -20.68420000      0.01539870      0.03677890      0.02262290       1
O              65.22130000     23.77030000     39.48220000     -0.09895740      0.12414200     -0.05511130       8
H              64.04640000     23.63280000     37.79180000      0.03699540      0.00661027      0.04963850       1
H              65.91010000     22.29590000     39.52580000      0.06395110     -0.13354100      0.00922955       1
O              56.64220000    -22.27320000      5.63790000     -0.04545300      0.03034250      0.00806084       8
H              55.75450000    -22.69760000      7.25372000      0.01729160      0.00011030     -0.02508940       1
H              55.22650000    -21.21630000      4.74322000      0.02561760     -0.03593040      0.01818940       1
O              31.63410000     17.37360000    -15.46100000     -0.01366900      0.02681520     -0.00547489       8
H              32.00620000     15.56000000    -15.56430000      0.01817700      0.01712500      0.02570570       1
H              32.22530000     18.66670000    -14.17760000      0.00087372     -0.05195010     -0.01321150       1
O              -9.00873000      7.64559000     61.79550000     -0.09151210     -0.00679827     -0.00636829       8
H             -10.01200000      6.11906000     61.27140000      0.00621456      0.02874940      0.00089265       1
H              -7.41497000      7.06233000     61.62970000      0.08232770     -0.01421060     -0.00946854       1
O               4.01222000      0.13805100     -1.46011000      0.09423110     -0.00143241     -0.00389767       8
H               3.11733000     -1.36375000     -1.33747000     -0.02344020     -0.03069610      0.00527817       1
H               5.89206000     -0.63641200     -1.46270000     -0.06753280      0.03545870      0.00458057       1
O              43.55580000      6.07797000     24.62720000      0.00684071     -0.00901242     -0.02170310       8
H              43.26510000      7.70509000     23.75960000     -0.00093060     -0.01179610      0.00317716       1
H              44.57910000      5.07688000     23.41100000     -0.00443947      0.01444670      0.01617460       1
O               1.54034000     58.19500000     30.35320000     -0.00740776     -0.03387890     -0.03874780       8
H              -0.23276500     57.17240000     30.07870000      0.07246220      0.01999520     -0.00184653       1
H               3.00014000     57.63660000     29.08520000     -0.06630220      0.01145250      0.03661240       1
O               9.15834000     36.17480000      8.95911000      0.06948270      0.00726433      0.02155280       8
H               7.94136000     35.21530000      9.95967000      0.01056660     -0.00220293     -0.00000176       1
H              11.24830000     36.24170000      9.85782000     -0.07387540     -0.00709831     -0.03129720       1
O             -16.85780000     20.24830000     17.01410000      0.11269500     -0.00918257      0.02117440       8
H             -18.52570000     20.16390000     17.33300000     -0.08156490     -0.00675684      0.02063890       1
H             -15.84960000     19.54890000     18.54750000     -0.02931380      0.01453700     -0.03471650       1
O              29.26270000     31.77270000     49.89790000      0.02137140     -0.08489770     -0.06798610       8
H              29.46980000     31.83430000     47.91330000     -0.00421557      0.02043210      0.06099160       1
H              29.41180000     29.73580000     49.93760000     -0.01883190      0.06738040      0.01770490       1
O              13.62710000     33.29190000     18.15090000     -0.00471377      0.03389300      0.04415290       8
H              14.08880000     32.89880000     16.49890000      0.01066070     -0.01735100     -0.04200680       1
H              12.91980000     31.85010000     18.92610000     -0.00821727     -0.01550790      0.00140689       1
O              -1.51189000    -25.77730000     22.94030000      0.00594632      0.01175960     -0.02634780       8
H              -3.16996000    -26.47950000     23.06370000     -0.01051090     -0.01074870      0.01219060       1
H              -0.51578500    -26.03680000     24.41490000     -0.00299535     -0.01145300      0.01571600       1
O               4.96556000     16.09480000     -2.02146000      0.04658220      0.03438210      0.00328401       8
H               6.45306000     15.44210000     -1.09729000     -0.02237060     -0.00051742     -0.00360510       1
H               3.67594000     14.91890000     -1.98924000     -0.03486740     -0.03695690      0.00038110       1
O               4.42191000      3.21643000     16.13440000     -0.03651770     -0.04830050     -0.02002300       8
H               3.01811000      2.00980000     15.49160000      0.03912230      0.03283730      0.01776440       1
H               3.78946000      3.85886000     17.76830000      0.00511182      0.00682225     -0.01201000       1
O             -37.87310000     53.54400000    -27.66530000     -0.08929780      0.15716000     -0.09275450       8
H             -38.54870000     52.35280000    -28.60870000     -0.03898350     -0.08054310     -0.06034240       1
H             -36.90500000     53.01790000    -26.55090000      0.13351100     -0.07943540      0.15031800       1
O               5.28659000     47.99870000    -13.84200000      0.00025998      0.00772920      0.05319230       8
H               5.42568000     49.66100000    -12.84140000      0.00423966     -0.01957300     -0.03367310       1
H               5.48553000     46.85040000    -12.37630000     -0.00269016      0.00605136     -0.02918530       1
O             -31.18580000     34.35910000      6.35861000      0.08462610      0.04172160      0.06387300       8
H             -32.19570000     33.45110000      5.38030000     -0.06485590     -0.05301480     -0.06646480       1
H             -29.53410000     33.45680000      6.32951000     -0.02027990      0.01267060      0.00059718       1
O              21.64800000     35.45660000     12.59180000     -0.02515720     -0.02133650      0.01209950       8
H              23.16060000     36.17980000     13.09690000      0.04205270      0.01117240      0.02337270       1
H              21.31340000     36.47380000     11.20890000     -0.01830530      0.01910530     -0.03924440       1
O             -11.87660000    -20.09420000     11.09110000     -0.00122769     -0.01418000      0.05544290       8
H             -11.73400000    -20.37060000      9.37559000      0.01013460      0.00977868     -0.05554810       1
H             -11.31590000    -21.73330000     11.72440000     -0.00963486      0.00648015      0.00439843       1
O             -45.23930000      6.15718000     19.55860000      0.19087100     -0.07030560      0.11820000       8
H             -46.34220000      7.01995000     18.88200000     -0.17960300      0.11679400     -0.10449400       1
H             -43.94920000      7.60383000     19.90650000     -0.01321770     -0.04280000     -0.00254836       1
O             -19.22980000    -14.97290000     34.46280000      0.00691635     -0.01170570      0.02533490       8
H             -19.34340000    -16.83190000     34.81760000      0.00201056      0.02987850     -0.01786320       1
H             -20.46540000    -14.22040000     33.35190000     -0.00954647     -0.01843820     -0.01141870       1
O              18.05080000     14.78230000     27.86460000     -0.09574950     -0.04313170     -0.03191620       8
H              19.41960000     15.42750000     28.58120000      0.08458060      0.03724950      0.04947060       1
H              17.43750000     13.49700000     29.08210000      0.01096170      0.00618305     -0.01978330       1
O             -22.24140000     -3.84902000     42.13690000     -0.02907750      0.08401860      0.02232930       8
H             -23.09930000     -3.61257000     43.81300000      0.01679180     -0.01438160     -0.02500700       1
H             -22.71530000     -1.95235000     41.47130000      0.01423190     -0.06585850      0.00355095       1
O              44.83560000      3.08791000     33.41220000     -0.04801770     -0.04794460      0.03948950       8
H              44.51370000      4.25335000     34.96020000      0.01045130     -0.01441280     -0.02885870       1
H              43.78770000      1.41302000     33.78930000      0.03713760      0.06541870     -0.01275510       1
O              -9.75334000    -31.85690000    -10.32410000     -0.02313870     -0.04376780     -0.02706280       8
H              -8.23195000    -31.02160000    -10.18940000      0.04832880      0.04561180      0.02556420       1
H              -9.02102000    -33.19540000    -11.40380000     -0.02849050     -0.00205506      0.00371992       1
O              54.86130000    -19.64300000    -12.31310000      0.02026810      0.00849113     -0.02785880       8
H              56.69370000    -19.35960000    -12.75470000     -0.03014230     -0.01108330      0.02064880       1
H              54.52430000    -19.78940000    -10.54050000      0.00493830      0.00349518      0.01813820       1
O              15.15160000     -1.34372000      5.95673000     -0.00136592      0.06833330      0.01528770       8
H              14.39240000      0.31991300      5.41676000      0.01923240     -0.02468360      0.01588030       1
H              14.31030000     -2.47079000      4.90593000     -0.01445070     -0.03755750     -0.02303580       1
O             -37.49800000     -6.04052000     44.61820000     -0.06377620     -0.02553010      0.07947520       8
H             -37.43660000     -7.59376000     43.64770000      0.01430010     -0.00583039     -0.01032210       1
H             -38.53370000     -6.81488000     46.36570000      0.05028230      0.02668040     -0.06493280       1
O               2.20477000    -12.89070000     -9.48223000      0.04541410     -0.00114167     -0.01448440       8
H               3.71522000    -12.03290000     -8.57258000     -0.03238440     -0.02833550     -0.03161950       1
H               2.74850000    -14.07230000    -10.98710000      0.00329836      0.03906280      0.04802210       1
O              19.10200000     18.33460000     14.93140000     -0.00358290     -0.07552660      0.05895900       8
H              19.90020000     18.91940000     13.50040000      0.03312940      0.01018220     -0.04041130       1
H              20.18320000     16.68590000     15.57110000     -0.02570100      0.07081150     -0.02532920       1
O               9.98426000     19.57570000    -11.19970000      0.01637740     -0.02965750      0.03245180       8
H              11.14990000     18.03960000    -11.11870000     -0.02604930      0.03242860      0.00078638       1
H               9.03505000     19.62730000     -9.49825000      0.01161050     -0.00289989     -0.03563550       1
O              25.21490000     49.22140000     31.24860000      0.01325100     -0.01563870      0.01490670       8
H              23.61020000     49.74540000     32.03530000      0.02438420      0.00322622      0.01092290       1
H              26.49140000     48.35430000     32.45260000     -0.03618170      0.02499860     -0.02076510       1
O              -2.57902000      6.90122000      5.56325000     -0.02147640     -0.01671490      0.05034700       8
H              -3.27618000      5.72837000      6.91325000      0.02239870      0.02063630     -0.02007590       1
H              -3.31052000      6.18761000      4.08938000     -0.00268676      0.00129059     -0.03088690       1
O              12.34100000    -25.61760000     21.59250000     -0.00271212     -0.12013700      0.11147700       8
H              11.44600000    -27.24840000     21.20730000      0.01836480      0.02415650     -0.02014950       1
H              12.46240000    -24.33060000     20.60370000     -0.00709250      0.09683190     -0.10015200       1
O              -6.63489000     20.40640000     47.22210000     -0.02981870     -0.00008633      0.00348520       8
H              -7.61914000     21.19000000     45.80930000      0.00847764     -0.02014530      0.03509840       1
H              -7.84804000     19.77570000     48.62730000      0.02049600      0.01801560     -0.03891930       1
O              33.16410000     39.32810000      1.00691000     -0.02316700      0.11424700     -0.01374860       8
H              32.25290000     40.74510000      2.24952000      0.01362270     -0.04210540     -0.01407420       1
H              33.43840000     37.74060000      1.59175000      0.00431491     -0.06265250      0.03432120       1
O              23.60980000     15.98150000    -31.60990000     -0.02395990     -0.05857330      0.03217980       8
H              23.47920000     14.90580000    -29.97450000      0.01156840      0.02419540     -0.04077860       1
H              24.50310000     17.42310000    -31.05000000      0.00917524      0.02416050      0.00406867       1
O             -22.12340000     43.80840000      1.79909000      0.01737440     -0.02836620     -0.00168887       8
H             -21.48810000     42.51780000      0.66743700     -0.01241290      0.00570499     -0.02116430       1
H             -20.99330000     43.17240000      3.08188000     -0.00228107      0.02211140      0.01827570       1
O               6.96686000    -29.35910000     27.83480000     -0.02659650      0.07658990     -0.33471300       8
H               7.28659000    -29.49810000     29.28150000      0.06096130     -0.05006620      0.33937900       1
H               8.06166000    -27.75970000     27.43940000     -0.03277700     -0.02966100     -0.01394960       1
O               4.11562000     26.66740000      3.32737000     -0.01363260      0.00783418      0.00306002       8
H               3.83389000     25.71720000      1.69289000     -0.00729804      0.01024580      0.03472340       1
H               2.72837000     26.74020000      4.72633000      0.02648450     -0.01799240     -0.04314140       1
O              -9.65858000    -11.99470000     10.48750000     -0.01517600      0.05006630     -0.02911000       8
H              -9.65735000    -13.56200000     11.22340000      0.00369523     -0.05535350      0.03642860       1
H              -8.76121000    -12.33420000      8.91857000      0.00345516      0.00073915     -0.00368042       1
O              -3.86842000      6.67219000     12.95330000     -0.03849420     -0.07910770      0.02669910       8
H              -2.86392000      8.12925000     12.91260000      0.01914640      0.02765540      0.00767653       1
H              -3.85778000      5.45319000     14.54440000      0.01898210      0.04306410     -0.03373850       1
O              24.29330000    -10.96590000     -2.97453000     -0.00608177     -0.02374260     -0.02023290       8
H              24.04950000    -12.74240000     -3.95324000     -0.01577230      0.05800460      0.03752610       1
H              22.67730000    -10.16120000     -2.44978000      0.01413000     -0.02525090     -0.00459011       1
O              23.01940000      9.48999000     41.98680000      0.01532560      0.01273640     -0.01887140       8
H              21.34620000      9.30866000     41.32930000     -0.00293920      0.00270970      0.00618189       1
H              23.92690000     10.65070000     40.77750000     -0.00807427     -0.02751890      0.00608836       1
O              14.45900000     27.60130000     47.22670000      0.00931332     -0.03073310     -0.00184394       8
H              16.22560000     28.02420000     47.21450000      0.00480475      0.01848010      0.00439741       1
H              14.64950000     25.76590000     47.35750000     -0.01304660      0.01428850      0.00235674       1
O             -12.62250000     14.00820000     17.54370000      0.00859832      0.01892330     -0.01459180       8
H             -11.42200000     14.72260000     16.26010000     -0.01207590     -0.01231000      0.01721350       1
H             -11.94150000     12.46490000     18.22880000      0.00841064     -0.00699155     -0.00448369       1
