192
TotEnergy=-1103.42105000 cutoff=-1.00000000 nneightol=1.20000000 pbc="T T T" Lattice="24.62179000       0.00000000       0.00000000      -0.00000100      24.62179000       0.00000000      -0.00000100      -0.00000100      24.62179000" Properties=species:S:1:pos:R:3:force:R:3:Z:I:1
O              24.94600000     -0.22395000    -36.77120000     -0.03069910     -0.03380790      0.03421330       8
H              23.56900000     -1.56766000    -36.01840000      0.03246520      0.03645290     -0.03564910       1
H              26.27070000     -1.21597000    -37.54600000     -0.00817707     -0.00787993      0.00501315       1
O              51.20670000     50.00690000      0.93832600     -0.08187730     -0.03561250      0.04491540       8
H              52.64640000     50.71180000      0.30439000      0.05415040     -0.00515314     -0.03317460       1
H              50.84510000     48.12380000      1.04246000      0.03609600      0.03730290     -0.01786980       1
O              12.98550000      0.67702800     16.48380000      0.05824470     -0.10710700     -0.01474010       8
H              13.55600000      1.66667000     17.83570000      0.00470811      0.02307130      0.02677050       1
H              14.31290000     -1.21122000     16.81260000     -0.06234320      0.07603980     -0.02009680       1
O              -3.58764000     -9.70366000     -2.83341000      0.02734670     -0.05000890      0.03735860       8
H              -2.71220000    -11.02750000     -1.64889000     -0.01488630      0.04781500     -0.04233540       1
H              -2.50538000     -8.20378000     -2.83184000     -0.00722522     -0.00394725      0.01172100       1
O               6.13111000     36.26440000     19.90520000      0.00704055      0.00478264     -0.03922130       8
H               5.67250000     35.31170000     21.27190000     -0.01348920     -0.01972780      0.06121460       1
H               6.16349000     34.85370000     18.76760000      0.00202343      0.00359996     -0.01603580       1
O              -7.80383000     11.75330000      7.01115000     -0.01375540      0.03375660      0.05378490       8
H              -8.76641000     13.42800000      7.22299000      0.02430560     -0.02857500     -0.02098260       1
H              -7.73713000     11.11290000      5.35211000     -0.01070760     -0.00797689     -0.03037140       1
O              43.49980000     30.08960000     13.10640000     -0.03241940     -0.01553570     -0.01038350       8
H              45.14680000     29.74860000     12.51720000      0.02239610     -0.00219423     -0.00043878       1
H              42.57470000     28.55700000     12.48210000      0.01361810      0.01702680      0.01303030       1
O               2.22056000    -37.10150000      6.35625000     -0.01868320     -0.02965470     -0.02567060       8
H               1.96006000    -38.82940000      5.69795000      0.00845435      0.02192530      0.01099760       1
H               2.60232000    -37.13860000      8.11473000      0.00432079      0.00546876      0.01551890       1
O              33.17140000    -34.27770000     17.03770000      0.05218270     -0.07569250     -0.00552056       8
H              32.26880000    -35.31300000     18.35550000      0.00751148      0.01988620     -0.01983970       1
H              34.54040000    -35.71370000     16.39310000     -0.05210540      0.06337880      0.01965050       1
O              10.95100000    -30.74640000    -24.35590000      0.04584820     -0.01783430      0.02203420       8
H              12.65600000    -31.38800000    -23.62340000     -0.03372800      0.01716520     -0.02617810       1
H               9.82562000    -31.53840000    -23.15680000     -0.00889437      0.00030453     -0.00172459       1
O             -12.21140000      5.20598000      8.30492000     -0.17259500     -0.09765440     -0.06137640       8
H             -10.98390000      5.83394000      9.08216000      0.15337100      0.09094200      0.09389010       1
H             -13.22030000      4.37950000      9.79385000      0.01154450      0.01352380     -0.02168810       1
O             -10.37860000     29.26830000     50.23160000      0.10385300     -0.01069770     -0.00833765       8
H             -11.54330000     28.52690000     51.23990000     -0.05958860     -0.02257230      0.03495850       1
H              -8.83848000     28.06510000     50.73100000     -0.04173960      0.03785580     -0.03511210       1
O              10.32670000    -31.09030000    -16.65150000      0.00506034      0.00760834      0.01372590       8
H               9.66829000    -32.32830000    -17.96480000     -0.00179311      0.01094880      0.03131420       1
H               9.61544000    -30.97150000    -14.89230000      0.00286973     -0.01373910     -0.03978630       1
O              27.71580000     13.88820000     35.70560000     -0.01141830      0.04064840     -0.05172150       8
H              26.34710000     13.92380000     36.77860000     -0.04896000      0.00707970      0.02731420       1
H              28.68790000     12.70030000     36.44670000      0.05697730     -0.04627110      0.02923410       1
O               2.00804000      1.29642000      6.34504000     -0.02292420      0.04408740      0.08948340       8
H               3.54655000      1.53729000      7.29547000      0.00371591     -0.00581194      0.00513637       1
H               2.46557000      0.72658900      4.83472000      0.02345290     -0.03237100     -0.09373230       1
O             -34.94890000     25.35000000     31.91420000      0.06458430      0.03692080     -0.04570340       8
H             -33.17990000     25.23990000     30.75100000     -0.06537450      0.00357895      0.05201650       1
H             -35.45950000     27.25540000     31.92450000      0.00882245     -0.04053770     -0.00154544       1
O             -32.49880000     12.06300000     22.63970000     -0.09051000     -0.05076510     -0.02998870       8
H             -33.22180000     11.29320000     20.94670000      0.03212760      0.02117550      0.05257700       1
H             -30.96140000     12.75220000     22.28850000      0.05412740      0.02904920     -0.02377370       1
O             -21.04650000     64.55570000    -21.83930000      0.01741160     -0.00701755     -0.02164830       8
H             -21.81260000     63.61530000    -20.47880000     -0.00394246     -0.00271813      0.01289580       1
H             -21.01750000     63.24330000    -23.15780000     -0.00630313      0.01493290      0.00849163       1
O              70.07100000     21.29030000     37.63550000      0.00092301      0.11329300     -0.10168400       8
H              68.62170000     22.52910000     37.38900000      0.02291050     -0.03940700      0.02055510       1
H              70.18620000     20.06040000     38.76940000     -0.02040230     -0.06238100      0.08582260       1
O              59.70390000    -13.85380000      1.73937000      0.12267400      0.11231400      0.09995970       8
H              58.86160000    -14.67340000      0.68251000     -0.11845100     -0.11096700     -0.12994500       1
H              61.05220000    -13.19500000      0.66300500     -0.00560944     -0.00165251      0.01846730       1
O              28.42140000     20.02400000    -13.67110000     -0.05825130      0.11282900     -0.05454700       8
H              29.78800000     20.01900000    -12.70070000      0.08065510     -0.01068180      0.05053970       1
H              27.86740000     18.45580000    -13.74130000     -0.03294040     -0.10021400     -0.00562549       1
O             -14.43500000      6.75547000     65.94100000     -0.05932830     -0.00170679     -0.00183932       8
H             -13.61690000      6.06728000     67.39870000      0.01061560     -0.00886830      0.00884926       1
H             -16.34340000      6.45017000     66.35030000      0.04524990      0.00604624     -0.00468730       1
O              10.59710000     -0.74536600      0.04443500      0.00618983     -0.04035880     -0.00528673       8
H              10.18820000     -1.05275000      1.81945000      0.00527778     -0.00420255     -0.01032890       1
H              10.94450000     -2.50360000     -0.67440800     -0.01026020      0.04447950      0.02931630       1
O              44.13530000      0.57476300     30.04850000      0.01351830      0.01998180      0.01323920       8
H              45.11150000      1.98417000     31.05730000     -0.02026810     -0.04967130     -0.03594270       1
H              45.07120000     -1.06610000     29.74820000     -0.00260410      0.03366920      0.02497470       1
O              -3.21941000     62.25860000     33.13190000     -0.07052010     -0.00323123      0.01591280       8
H              -4.99331000     61.39630000     32.79890000      0.03501490      0.02082100      0.00059988       1
H              -2.00666000     61.14140000     32.58970000      0.03698610     -0.02643510     -0.02330520       1
O               3.48689000     32.44220000     13.93090000      0.03778100     -0.00371848     -0.05563080       8
H               5.06661000     32.78190000     12.64780000     -0.06834340     -0.01403210      0.04222710       1
H               2.09742000     31.17790000     13.33140000      0.03536730      0.03389990     -0.00384514       1
O             -14.04270000     19.21760000     19.51760000      0.01644360     -0.00859696      0.08022760       8
H             -14.35910000     17.39130000     19.32430000     -0.00541210      0.01765350     -0.00046890       1
H             -13.72090000     19.46120000     21.55060000     -0.01570680     -0.02197210     -0.07774360       1
O              25.67920000     36.23130000     49.20080000     -0.00187940     -0.02586420     -0.01093090       8
H              24.69320000     35.03060000     50.17550000     -0.00107096      0.01003690      0.00734534       1
H              26.14270000     35.05950000     47.83870000     -0.00379717      0.01454850      0.00086818       1
O               6.85511000     26.44860000     22.58440000     -0.02634420      0.01817050     -0.02357550       8
H               7.05867000     26.09490000     20.78320000     -0.00144971     -0.00054045      0.01697590       1
H               7.90445000     25.29750000     23.47970000      0.02144700     -0.01189000      0.00357564       1
O               3.57166000    -23.60540000     16.75190000     -0.06027020     -0.06987800     -0.05129700       8
H               1.71312000    -24.04620000     15.45810000      0.08213210      0.01310390      0.04784550       1
H               4.44833000    -25.36920000     16.85720000     -0.02014690      0.05759740     -0.00157760       1
O               1.70040000     20.05360000      1.69889000     -0.05840220      0.06305740      0.02163920       8
H               2.53128000     18.50840000      1.74398000      0.01508910     -0.04273810      0.01363560       1
H               0.48595400     20.31790000      3.15838000      0.03547490     -0.01623180     -0.02195180       1
O              -0.31684300      4.92535000     12.23010000      0.00593241      0.00308988     -0.00709097       8
H              -0.65956300      5.06605000     10.36960000      0.01091480     -0.01203000      0.02697150       1
H               0.54918200      3.35246000     12.77340000     -0.02331530      0.00792767     -0.02524680       1
O             -35.49870000     53.65360000    -29.45730000      0.00594819      0.00917505     -0.02105170       8
H             -34.32160000     54.90730000    -30.10350000     -0.00157283      0.00136688     -0.00558032       1
H             -35.19850000     53.74290000    -27.71710000     -0.00235141     -0.00573413      0.03476710       1
O               8.92866000     58.34680000    -18.30100000     -0.00270523     -0.07647090      0.19158800       8
H               9.71452000     56.61420000    -17.53330000     -0.01841350      0.06742460     -0.04320910       1
H               9.03471000     58.51000000    -19.91380000      0.02757150      0.00421675     -0.14035400       1
O             -40.41870000     39.90940000      4.20190000     -0.03009870     -0.03908250     -0.02387200       8
H             -39.85960000     38.12000000      3.55757000     -0.02105750      0.05216960      0.01783480       1
H             -42.37450000     40.04040000      3.99691000      0.04496830     -0.01015950     -0.00039957       1
O              16.26010000     33.34740000     17.98190000      0.00481181     -0.01049150      0.03613890       8
H              17.99620000     33.00890000     17.52160000     -0.00172779      0.00878735     -0.01405170       1
H              15.22740000     33.94120000     16.66190000      0.00361109      0.00747895     -0.02331670       1
O             -17.13290000    -13.45480000     11.77430000      0.10389500     -0.02522030     -0.01205390       8
H             -16.10860000    -13.68270000     10.14310000     -0.04381900      0.00721865      0.02336380       1
H             -15.41560000    -13.60930000     12.82210000     -0.06341890      0.01118700     -0.01407400       1
O             -44.32400000      5.80529000     17.99090000      0.00860492      0.00938581     -0.00157955       8
H             -44.88810000      4.03090000     18.01320000      0.00720495      0.00994192     -0.01212940       1
H             -44.54790000      6.55780000     16.22870000     -0.01533160     -0.01626810      0.02061490       1
O             -20.61720000    -17.17980000     29.00740000     -0.09477150     -0.10102400     -0.05020540       8
H             -19.25150000    -16.60870000     29.79410000      0.08651860      0.02705840      0.05565860       1
H             -20.71470000    -19.15580000     29.13260000      0.00688186      0.06999540      0.00226703       1
O              15.81800000     17.04970000     25.95820000      0.01327840     -0.02524190     -0.02869480       8
H              16.14330000     16.84460000     27.69330000     -0.00330762      0.00725092      0.03518350       1
H              16.65090000     15.52990000     25.28680000     -0.01385560      0.01875930     -0.00642717       1
O             -18.03460000      0.49386700     33.89000000     -0.01191050     -0.00909795     -0.01872940       8
H             -17.07150000     -0.31591100     32.36750000     -0.02155410      0.00741762      0.03737080       1
H             -19.36360000     -0.56621400     34.66090000      0.03028320      0.00290273     -0.02081030       1
O              40.12330000      9.14217000     36.07550000      0.01077120      0.00163168     -0.04027930       8
H              41.76370000      8.28000000     36.41200000     -0.02110980      0.00729832     -0.00373766       1
H              40.13440000      9.84471000     34.28730000      0.01256640     -0.01440700      0.03578860       1
O              -4.18208000    -31.43960000     -8.14667000      0.02786090     -0.07079900     -0.04147680       8
H              -3.42453000    -31.97500000     -6.59955000     -0.00252471      0.00852830      0.01299360       1
H              -3.49323000    -33.04490000     -9.23152000     -0.02682790      0.05008200      0.02373200       1
O              59.01720000    -21.30500000    -12.30140000      0.02965130      0.01835630      0.01103220       8
H              59.06020000    -20.39750000    -10.67280000     -0.00372245     -0.00808880     -0.01655910       1
H              57.37900000    -21.71390000    -12.87320000     -0.01835900     -0.00845159     -0.00002275       1
O               8.15606000     -1.59165000     17.32660000     -0.03812710      0.03525590     -0.02931240       8
H               9.45104000     -0.67215700     16.43030000      0.00799775     -0.00400923      0.00838145       1
H               8.83138000     -2.95320000     18.20220000      0.02677400     -0.03074750      0.01959390       1
O             -32.45980000     -3.42498000     46.75780000     -0.01399930     -0.03674790      0.09374820       8
H             -32.90090000     -3.53357000     45.12100000     -0.01506540      0.00189387     -0.08493040       1
H             -33.49370000     -4.90485000     47.43140000      0.03219960      0.03880930     -0.00537737       1
O              12.35100000    -13.39950000    -10.05930000     -0.05201580      0.05527990      0.09240270       8
H              11.78370000    -14.89440000     -9.28609000     -0.00944477     -0.03339620      0.00471917       1
H              13.02600000    -13.64870000    -11.56960000      0.05150290     -0.02713060     -0.08414160       1
O              20.15780000     17.98300000      8.57401000      0.02352530      0.06684560      0.06750200       8
H              20.89770000     18.29610000     10.41070000     -0.03204040     -0.00815286     -0.06492310       1
H              20.12640000     16.26660000      8.32113000      0.01377830     -0.05185880     -0.00255666       1
O              15.09660000     19.86960000     -7.64768000      0.01556900      0.00960598     -0.00410734       8
H              13.60120000     18.91310000     -7.41098000     -0.01528810     -0.00144896      0.00617462       1
H              16.41350000     18.70430000     -8.09675000      0.00702048      0.00224457     -0.00135667       1
O              23.26300000     46.54670000     30.98790000     -0.00942828      0.02892450     -0.05338720       8
H              23.31010000     44.99360000     31.84180000      0.00271823     -0.00343263      0.03052370       1
H              23.88560000     48.20770000     31.50890000      0.01141010     -0.03291750      0.01746650       1
O              -7.91216000      9.40963000      2.53545000      0.00277380      0.00159792     -0.01177920       8
H              -8.08581000     10.54930000      1.06996000      0.00368064     -0.01384260      0.00211412       1
H              -8.61758000      7.78226000      2.01766000     -0.00476176      0.00872873      0.00270087       1
O              16.69430000    -23.93310000     12.15980000     -0.07486990      0.05245000     -0.03938180       8
H              15.66240000    -23.65070000     10.37510000      0.03924670     -0.02609840      0.04936920       1
H              15.36230000    -23.02330000     13.25890000      0.03158610     -0.03772150     -0.01126900       1
O              -2.05832000     13.72830000     37.94200000     -0.00675209      0.02528390     -0.07490420       8
H              -2.18686000     12.22150000     38.78900000     -0.00251470     -0.04458380      0.04206610       1
H              -2.51281000     13.11200000     36.06270000      0.00608297      0.03113270      0.04396780       1
O              47.08580000     44.33600000     -1.98146000      0.01173310      0.00545890      0.03369050       8
H              48.05130000     44.40300000     -0.38253300      0.01627770     -0.00569398     -0.02695780       1
H              45.53040000     44.77190000     -1.18255000     -0.02464530      0.00163342     -0.01749810       1
O              24.94150000      7.82268000    -28.62410000     -0.06789310     -0.04807930      0.06785810       8
H              26.31880000      7.19007000    -29.51090000      0.03903950     -0.01964370     -0.01814490       1
H              24.18360000      6.20378000    -27.44820000      0.02851340      0.06055630     -0.05014040       1
O             -14.81680000     48.01330000      5.72584000     -0.13550900     -0.07384340     -0.04825050       8
H             -13.51500000     48.85680000      6.17767000      0.13525200      0.08726550      0.04372890       1
H             -14.50880000     46.38350000      6.43238000     -0.00116158     -0.02280450      0.00368014       1
O               7.99856000    -30.40080000     37.80440000      0.01179590     -0.03198310     -0.02061500       8
H               8.00340000    -31.81850000     38.93680000      0.00164541     -0.01689690     -0.00054296       1
H               7.66654000    -29.14560000     38.96100000      0.00108334      0.04848040      0.03233410       1
O              -1.67178000     29.64560000      6.88518000     -0.03453930      0.02618500      0.00779825       8
H              -0.18300300     28.74800000      6.62747000      0.03280160     -0.02334250     -0.01269830       1
H              -1.80605000     30.93920000      5.54202000     -0.00100267     -0.00833783      0.00799654       1
O              -9.05190000     -7.95641000      6.63412000     -0.05880070      0.00114866      0.01817920       8
H             -10.58760000     -7.30830000      7.60759000      0.01786190     -0.01292330     -0.02773730       1
H              -7.74198000     -7.06221000      7.43638000      0.02980990      0.01580420      0.01286690       1
O              -2.71004000      9.18518000     16.59460000      0.05264110     -0.08508690     -0.02631320       8
H              -1.69125000      8.24541000     18.08460000     -0.02683070      0.03901820     -0.03658740       1
H              -2.08995000      7.99180000     15.03060000     -0.02871840      0.04764870      0.06379460       1
O              22.02270000    -16.60370000      2.69763000      0.01914620     -0.00900264      0.00314234       8
H              22.24380000    -18.15020000      1.70063000     -0.00933551      0.00921096     -0.00244929       1
H              20.25560000    -16.19250000      2.70430000     -0.00986715      0.00167449     -0.00439728       1
O              22.53820000      3.95814000     48.41460000     -0.09080800      0.00255058     -0.03351590       8
H              21.30480000      2.43780000     48.38040000      0.00157794      0.04932480     -0.00610999       1
H              23.71240000      2.96875000     49.09640000      0.09597710     -0.04763590      0.04204780       1
O              18.27680000     25.72610000     49.72500000      0.01768920      0.03153390      0.04901620       8
H              18.34650000     25.36550000     51.60990000      0.00679029     -0.00012047     -0.03633230       1
H              17.59060000     24.41360000     48.77460000     -0.01880390     -0.03429770     -0.01467000       1
O             -18.17100000      7.00681000     24.23040000     -0.01015040     -0.03028680      0.00448124       8
H             -18.31670000      5.15247000     23.68810000      0.00890808      0.03983010      0.00917715       1
H             -19.03310000      7.18027000     25.87200000      0.00503691     -0.00402597     -0.02034540       1
