192
TotEnergy=-1103.32581000 cutoff=-1.00000000 nneightol=1.20000000 pbc="T T T" Lattice="24.47920000       0.00000000       0.00000000      -0.00000100      24.47920000       0.00000000      -0.00000100      -0.00000100      24.47920000" Properties=species:S:1:pos:R:3:force:R:3:Z:I:1
O              23.84770000     -4.00430000    -28.90150000      0.01370690     -0.03682790     -0.02374700       8
H              22.60280000     -4.24751000    -30.46500000      0.02816760      0.00325283      0.04805810       1
H              24.82410000     -5.61581000    -28.27970000     -0.04032690      0.04102600     -0.01855240       1
O              50.95030000     43.36000000      3.35249000     -0.01297180      0.02850330      0.12412300       8
H              52.58280000     43.98580000      3.21879000      0.03906740      0.02084610      0.00627659       1
H              50.76290000     42.80320000      1.82610000     -0.03025180     -0.05373430     -0.13027800       1
O              10.50520000      2.30732000     10.87190000      0.00567354     -0.11515800     -0.00501383       8
H              11.15040000      3.71752000     11.70920000      0.01992360      0.01946610      0.02605270       1
H              10.96280000      0.27536000     11.76090000     -0.01703080      0.09166910     -0.01460470       1
O              -5.40056000     -8.72778000      2.10039000     -0.02748210     -0.04441990      0.04826680       8
H              -4.12981000     -8.65011000      0.93392200      0.03270330      0.02058560     -0.03840940       1
H              -6.43910000     -7.30713000      2.52183000      0.00336273      0.02034240     -0.01658760       1
O               8.92925000     30.44960000     18.88380000      0.05474820      0.00173237     -0.03065140       8
H               8.95990000     32.00010000     19.77730000     -0.01462920      0.01796820      0.01759550       1
H              10.79420000     30.53100000     18.24110000     -0.04455790     -0.02088640      0.01197430       1
O              -6.21381000     12.15180000      9.76586000      0.04418590      0.09098280      0.05165820       8
H              -7.50475000     11.13860000      9.43456000     -0.06985140     -0.07891240     -0.02254790       1
H              -4.99503000     12.09130000      8.47329000      0.01923830     -0.00477346     -0.03440490       1
O              45.63720000     27.46990000     11.88090000      0.06291580     -0.01390430      0.03548490       8
H              47.45370000     27.01950000     12.63610000     -0.05633380      0.01910120     -0.02607470       1
H              45.40560000     26.37960000     10.48290000      0.00002323     -0.00824732     -0.01108500       1
O               1.69590000    -27.96570000     10.59050000     -0.04736140      0.04334370     -0.03986040       8
H               1.31116000    -29.77800000     10.44090000     -0.00105105      0.00817151     -0.00147528       1
H               0.41634400    -26.87950000      9.38474000      0.05169680     -0.05204570      0.04171870       1
O              30.17670000    -34.44790000     19.52460000      0.04262320     -0.09327270      0.01643840       8
H              30.99830000    -33.00770000     19.00140000      0.01896830      0.05085990     -0.01804080       1
H              31.77470000    -35.74740000     19.67250000     -0.06377140      0.04265410      0.00687876       1
O               9.62577000    -26.86600000    -27.01270000      0.04344950     -0.00577548      0.00064409       8
H              11.61850000    -27.04530000    -27.29770000     -0.06489320      0.00463790      0.02608440       1
H               8.99089000    -27.44530000    -25.33280000      0.01766390      0.00145375     -0.02074200       1
O             -10.67420000      0.79301500      6.88137000     -0.01674430     -0.05656090      0.11081500       8
H             -11.85560000      1.53918000      8.17743000      0.01575720      0.00679568     -0.02929320       1
H             -10.35180000      1.39132000      5.34475000     -0.00602595      0.05413040     -0.08264890       1
O             -11.52900000     27.52350000     51.06050000     -0.07796690     -0.01086490      0.01505730       8
H             -13.62810000     27.29410000     50.97890000      0.07517920      0.01211150     -0.01011750       1
H             -10.72070000     26.86840000     49.57690000     -0.00390206      0.00055068     -0.01101260       1
O              15.24390000    -29.05340000    -13.00590000     -0.03048430     -0.04377620     -0.01721950       8
H              14.62650000    -30.71960000    -14.13850000      0.02094530      0.05340360      0.03272620       1
H              13.70410000    -28.34580000    -12.14080000      0.01782870     -0.01015670     -0.01219990       1
O              25.89620000     15.76370000     35.40530000     -0.04531410      0.07556200     -0.14068000       8
H              26.02860000     15.03620000     33.63890000      0.01051680     -0.00819595      0.04748990       1
H              26.29860000     15.07600000     36.85190000      0.03794500     -0.06954280      0.08434150       1
O              -1.10766000      2.35914000      2.41593000     -0.01186250      0.09444700     -0.07488360       8
H              -1.09347000      1.18002000      3.55926000     -0.00882984     -0.09400770      0.10987100       1
H              -0.53725000      1.37344000      1.07124000      0.02038890     -0.00711969     -0.04152500       1
O             -26.35710000     22.82170000     30.37500000     -0.00146637     -0.07156890     -0.01188850       8
H             -25.80950000     21.03650000     29.53340000     -0.01910870      0.07178210      0.03360660       1
H             -28.09080000     22.52200000     31.21800000      0.03020140      0.00187050     -0.02080850       1
O             -32.89910000     11.11900000     25.67780000      0.07282830      0.05296210     -0.04029680       8
H             -33.55850000     10.69920000     24.05550000     -0.01723250     -0.01326950     -0.00994516       1
H             -31.28470000     12.12330000     24.83600000     -0.06024520     -0.03546470      0.05100540       1
O             -16.25870000     63.76680000    -21.33080000     -0.00532566     -0.01808130     -0.00419848       8
H             -16.93020000     63.30990000    -19.74750000     -0.00799259      0.02132760      0.03975760       1
H             -16.79600000     62.17890000    -22.01620000      0.00880274     -0.00399160     -0.03033050       1
O              69.51930000     20.52260000     40.79980000     -0.00889933      0.03222100     -0.03493510       8
H              69.51100000     21.95250000     39.54230000      0.00242968     -0.03298710      0.02907070       1
H              67.69420000     19.93720000     40.95600000      0.02383010      0.00117523      0.00664850       1
O              56.60680000    -20.70720000      1.39960000     -0.02661260     -0.02780410     -0.06602060       8
H              55.41240000    -21.40470000      2.57487000     -0.00729007      0.00280846      0.03361030       1
H              55.63140000    -21.49110000     -0.17292700      0.04594200      0.03172340      0.02839840       1
O              32.11190000     20.27620000    -14.00880000     -0.04938170      0.03537200      0.00657747       8
H              31.64680000     18.52380000    -14.12210000     -0.00027453     -0.00640049     -0.00155003       1
H              30.44540000     21.25530000    -13.67540000      0.04118810     -0.03117120     -0.01198410       1
O             -12.93310000      7.68342000     60.32070000     -0.02673700      0.03517540     -0.05585450       8
H             -14.30410000      8.49568000     59.27750000      0.00094148     -0.02380880      0.02387160       1
H             -11.74910000      7.76135000     58.80310000      0.00969230     -0.01301180      0.03267530       1
O               6.67993000      1.82475000     -3.66809000     -0.01991470      0.04248760     -0.01116070       8
H               7.77072000      0.54373300     -3.16245000      0.03023810     -0.03234820      0.00615182       1
H               7.70370000      3.18232000     -4.47171000     -0.00813985     -0.01067840      0.01065590       1
O              43.56490000      4.48501000     24.59910000      0.05185210     -0.01643850      0.06493640       8
H              42.92450000      5.15715000     26.31190000      0.00030341     -0.01009200     -0.04716000       1
H              45.14130000      3.41122000     25.24190000     -0.04286230      0.03172590     -0.01759980       1
O              -3.32145000     61.34790000     29.95700000      0.00237830      0.05032060      0.00572196       8
H              -4.22760000     62.76440000     28.81960000      0.03140200     -0.03617570      0.03356770       1
H              -1.89312000     62.15330000     30.99370000     -0.03222770     -0.01536220     -0.04112880       1
O               8.29551000     39.28890000      8.97778000      0.01660740     -0.08671380      0.00503708       8
H               7.83381000     37.38860000      8.60079000     -0.01009070      0.05236900      0.00232390       1
H               9.72624000     38.58870000      9.99213000     -0.01521930      0.03537320     -0.00535294       1
O             -17.19680000     19.62850000     17.73660000      0.20297300     -0.09336890      0.09090900       8
H             -18.48910000     20.24370000     17.14130000     -0.20045600      0.08864060     -0.10015600       1
H             -16.97480000     20.51700000     19.29030000      0.01205820      0.00256337      0.01341630       1
O              32.33850000     33.41620000     51.14840000     -0.02653010      0.00958434      0.00942386       8
H              32.44450000     31.58090000     50.97000000      0.00028968      0.00345218     -0.00313745       1
H              30.44460000     33.71100000     51.42460000      0.02521890     -0.00859372     -0.00390266       1
O              14.36870000     34.45570000     20.63340000      0.00051683     -0.03087820      0.00469734       8
H              14.67680000     35.63310000     19.28260000     -0.00243769      0.01172750     -0.01392510       1
H              14.30900000     32.76850000     19.80950000     -0.00542038      0.01554950      0.00422289       1
O               1.56451000    -23.61110000     21.75420000     -0.22724500     -0.10426200     -0.03712710       8
H               1.25925000    -25.39790000     20.74840000      0.00893983      0.06755190      0.04129140       1
H               3.09834000    -23.28200000     21.79480000      0.21193100      0.03285470      0.00078496       1
O               2.05111000     13.95900000      5.89359000     -0.00529853      0.05512310      0.02836720       8
H               2.43207000     12.56270000      4.84212000      0.00762260     -0.01054460     -0.02345590       1
H               2.30930000     15.63580000      5.07759000     -0.00463164     -0.02769080      0.00078443       1
O               1.84547000      2.30825000     13.79470000     -0.01195530     -0.05610260     -0.01882630       8
H               1.92881000      0.59195800     14.54410000      0.00238382      0.01479550     -0.01206270       1
H               2.24685000      3.28707000     15.17980000      0.00427298      0.03754010      0.04270300       1
O             -34.90230000     54.12570000    -30.98170000     -0.04883400      0.05186410     -0.03909910       8
H             -34.16540000     54.43760000    -32.63270000      0.01589530     -0.01153830      0.01530770       1
H             -34.11070000     53.26220000    -29.67110000      0.03577290     -0.03877020      0.02102720       1
O               5.27673000     50.44650000    -19.58580000      0.01885030     -0.02713850      0.06260640       8
H               4.67133000     50.57520000    -17.66150000      0.02757000     -0.00169436     -0.06142190       1
H               6.98646000     49.49270000    -19.49600000     -0.04920670      0.01974800      0.00972124       1
O             -35.74390000     39.66480000      3.88113000     -0.06896080      0.02318570      0.03734360       8
H             -34.86230000     38.63890000      2.75390000      0.00805921     -0.02977560     -0.02427110       1
H             -37.78250000     39.29120000      3.97933000      0.07183080      0.00863093     -0.01892930       1
O              19.61190000     35.32920000     14.52600000      0.02531430      0.05449010     -0.00463955       8
H              21.08090000     36.35930000     15.33530000     -0.04399370     -0.02546510     -0.02436890       1
H              19.07280000     36.39620000     12.99460000      0.02148270     -0.03023280      0.02627230       1
O             -16.86870000    -15.00050000      7.64337000      0.03823980      0.01652230      0.04575070       8
H             -16.75650000    -14.63250000      5.91944000     -0.00871052     -0.01229930     -0.03230150       1
H             -18.36810000    -15.75730000      8.25941000     -0.02763010     -0.00463440     -0.01053490       1
O             -46.43340000      5.59437000     18.61520000      0.03892640     -0.00382006      0.00623656       8
H             -46.65030000      4.37862000     20.10760000      0.01792430      0.02488880     -0.04298000       1
H             -44.56460000      5.94863000     18.09540000     -0.05513240     -0.02147430      0.03236300       1
O             -21.69680000    -17.13320000     33.68340000      0.09945030      0.03844930      0.05254780       8
H             -21.10660000    -18.78090000     33.60100000      0.01254010     -0.04271170      0.00212501       1
H             -23.19860000    -17.08510000     32.99760000     -0.10781800      0.00541827     -0.05236860       1
O              14.42200000     15.63500000     33.33190000      0.07927770     -0.04157570      0.04658510       8
H              16.24740000     14.59570000     33.78920000     -0.05417530      0.03424810     -0.00197154       1
H              14.58340000     15.22670000     31.60660000     -0.02074700      0.00670798     -0.04241230       1
O             -21.44010000     -3.03830000     40.53190000      0.01875930      0.03352560      0.12144600       8
H             -22.97440000     -3.54491000     41.52910000      0.03302770      0.01697900      0.04012800       1
H             -22.40090000     -3.54100000     39.32920000     -0.05895750     -0.04391450     -0.16586200       1
O              40.23310000      7.81095000     33.68000000      0.00029663      0.00300258     -0.08743810       8
H              40.82440000      7.17013000     31.88380000     -0.01546560      0.00938157      0.05905280       1
H              40.71070000      6.84750000     35.16220000      0.01616150     -0.01039340      0.00376012       1
O              -9.15199000    -35.75940000     -7.90776000     -0.05219970      0.02181220     -0.06706680       8
H              -7.75616000    -36.52550000     -8.72838000      0.03233110     -0.01473250      0.00715250       1
H             -10.22150000    -35.63610000     -9.75968000      0.01252480     -0.01050800      0.06689230       1
O              54.15400000    -21.78570000    -14.35790000      0.01390100      0.01740740      0.04988970       8
H              55.91720000    -21.08800000    -14.09720000     -0.03334750     -0.02471740     -0.00524597       1
H              53.31500000    -21.90490000    -12.54850000      0.01755780      0.00131382     -0.05605780       1
O              17.95830000     -2.33011000      7.53000000     -0.04142420      0.03836340      0.00717335       8
H              16.77970000     -0.81919800      7.06548000      0.02559530     -0.03882530      0.01494900       1
H              17.23950000     -2.75068000      9.22374000      0.00477661     -0.00691418     -0.01711000       1
O             -33.98670000     -3.17704000     45.85920000     -0.02741650      0.03694950     -0.04986840       8
H             -34.51340000     -4.08331000     44.33090000      0.02046690     -0.00482981      0.02027150       1
H             -33.57330000     -4.10452000     47.27750000      0.00900977     -0.03333700      0.02799030       1
O               2.66740000    -11.21240000     -9.05783000     -0.03533040     -0.03719950     -0.06757280       8
H               3.63698000    -11.09640000     -7.68273000      0.05736500      0.03582380      0.08834310       1
H               3.15902000    -12.95060000     -9.36377000     -0.01753210      0.00314605     -0.02001350       1
O              22.46510000     15.05310000     16.75220000      0.02902560      0.05515530     -0.01384150       8
H              21.64620000     16.83030000     16.58750000      0.02792960     -0.05180170     -0.00172520       1
H              24.38040000     15.19760000     16.21900000     -0.06490740     -0.00848246      0.01611380       1
O              11.01600000     21.71360000    -10.74970000     -0.02804850      0.01526420      0.06591750       8
H              10.28790000     21.73820000     -8.70867000      0.02061430     -0.00925100     -0.10046400       1
H               9.69284000     21.11250000    -12.01300000      0.00331173     -0.00137984      0.02999850       1
O              23.49480000     55.91350000     29.90160000     -0.06597530      0.04217370     -0.02514410       8
H              21.79820000     56.60410000     29.11210000      0.06093450     -0.01493280      0.03143440       1
H              23.37200000     54.18110000     29.49390000      0.00682945     -0.01860240     -0.00835222       1
O              -8.40479000      6.46780000      3.94594000      0.00911441     -0.05707790      0.03044980       8
H              -9.33498000      7.85978000      3.60373000     -0.01496460      0.07991220     -0.02191980       1
H              -9.89969000      5.37315000      3.79873000      0.01559490     -0.02188010     -0.00488452       1
O              16.31110000    -30.38930000     16.67210000     -0.02610810     -0.00420336     -0.03468930       8
H              16.04900000    -30.27640000     14.80560000     -0.00002083      0.01527680      0.01061360       1
H              15.69040000    -32.10110000     16.79460000      0.00750253     -0.01633340      0.01763810       1
O               1.13232000     16.20990000     47.54670000     -0.00302144     -0.06255770     -0.03325830       8
H               2.55516000     15.38440000     46.69260000      0.01373650      0.02288830      0.00893632       1
H               0.08953200     14.61160000     47.15440000     -0.00320229      0.04723830      0.02372710       1
O              40.48760000     44.23890000      2.55937000      0.03939230      0.03188800      0.03760400       8
H              41.06440000     44.77490000      4.29603000      0.00346960      0.00680959     -0.03206160       1
H              39.17650000     43.26100000      3.17789000     -0.04722050     -0.03621960      0.00049578       1
O              21.64500000     13.18660000    -27.08640000     -0.02451390     -0.05690150     -0.01308090       8
H              20.81660000     11.39520000    -27.47180000      0.02201540      0.03641030      0.01684150       1
H              21.63290000     13.88740000    -28.75710000      0.00005961      0.01305790     -0.01196890       1
O             -17.36240000     44.49510000      1.76661000     -0.06798410      0.04277860     -0.08058560       8
H             -16.55450000     43.04520000      1.96624000      0.04553700     -0.08924330      0.01472640       1
H             -16.97740000     45.50340000      3.08165000      0.02419710      0.04418970      0.06332590       1
O               9.21143000    -26.57980000     30.24160000      0.04818470      0.04606130     -0.08100020       8
H               8.95027000    -27.19270000     31.78390000     -0.02685160     -0.04029060      0.09066280       1
H              10.98430000    -25.99300000     30.36240000     -0.01763890     -0.00196374     -0.00806085       1
O               3.05799000     34.57520000      2.88284000     -0.02027100      0.00536743     -0.06825320       8
H               1.75561000     33.59600000      3.78025000      0.00622786     -0.00095192     -0.01649100       1
H               2.54422000     34.78610000      0.74593700      0.00494473     -0.01423720      0.07609710       1
O             -12.21740000    -11.77620000     12.41760000     -0.02885310     -0.05848090      0.02356300       8
H             -12.61730000    -13.64150000     11.91500000      0.01683820      0.03284290      0.02704790       1
H             -11.61430000    -11.08850000     10.93150000      0.02391730      0.02806640     -0.04104330       1
O              -7.07426000      6.12300000     13.34640000      0.00340544      0.02089580      0.01748840       8
H              -5.80416000      7.44134000     13.67030000     -0.01642770      0.00463819      0.00230491       1
H              -5.94410000      4.75087000     13.15960000      0.01166390     -0.02770100     -0.00672011       1
O              26.21340000    -14.22040000     -2.20406000     -0.05449930      0.04268050     -0.04194730       8
H              24.74340000    -13.21070000     -3.17026000      0.04372540     -0.02393190      0.04998090       1
H              26.22890000    -15.56080000     -3.40821000      0.01541060     -0.02404070     -0.00104822       1
O              19.83190000      8.30123000     45.35400000     -0.05331890      0.09379640     -0.07933680       8
H              20.22280000      7.06944000     46.44030000      0.00227845     -0.06640150      0.06075600       1
H              17.95000000      8.51524000     44.95520000      0.05170050     -0.01543970      0.02194630       1
O              16.05920000     26.67570000     46.07120000      0.01636130     -0.00562152      0.00734881       8
H              17.64210000     27.51400000     46.95180000     -0.04163840     -0.03395310     -0.00982433       1
H              15.98030000     24.78660000     45.90990000      0.01327240      0.03572010      0.00580624       1
O             -15.48800000     10.84180000     21.80240000      0.12461400     -0.00046587     -0.09018730       8
H             -13.42100000     10.42030000     22.01430000     -0.07824420      0.02261890     -0.02111430       1
H             -15.96490000     10.49530000     23.36560000     -0.04146340     -0.02464370      0.10166700       1
