192
TotEnergy=-1102.19676000 cutoff=-1.00000000 nneightol=1.20000000 pbc="T T T" Lattice="23.13184000       0.00000000       0.00000000      -0.00000100      23.13184000       0.00000000      -0.00000100      -0.00000100      23.13184000" Properties=species:S:1:pos:R:3:force:R:3:Z:I:1
O               1.43801000     21.41290000      1.46140000      0.01567790      0.03667110      0.03534330       8
H               0.31506200     22.81520000      2.42782000      0.00916108     -0.02888930     -0.01352620       1
H               3.07273000     21.76210000      2.31099000     -0.01625670     -0.01570200     -0.01958580       1
O               9.83413000     11.54180000     20.15620000     -0.00348070     -0.00134511     -0.03554880       8
H               8.01971000     10.87120000     20.43330000      0.01841100      0.00007682     -0.01343040       1
H              10.28470000     12.01450000     18.32730000     -0.01934220     -0.00543703      0.03475110       1
O              18.39030000      1.92094000      7.66120000      0.05572260      0.01738630     -0.03219260       8
H              19.93930000      3.34752000      9.43532000     -0.03990540     -0.04564070     -0.02925000       1
H              19.46550000      1.33409000      5.88135000     -0.03978380      0.02241030      0.07708240       1
O              22.24120000      5.57080000      5.44166000      0.02303980      0.02500340      0.03540780       8
H              23.65100000      6.09435000      6.60139000     -0.00548679      0.00907516     -0.01692110       1
H              20.77210000      6.50207000      6.01925000     -0.00844657     -0.00827357     -0.01183830       1
O              21.34630000     15.82530000     12.87880000     -0.00866440      0.02552750     -0.00511273       8
H              20.16740000     14.48440000     12.75160000      0.00063225     -0.02392940      0.00124985       1
H              20.25520000     16.97350000     13.87690000      0.02184640     -0.00663148     -0.00654263       1
O               7.03198000     -0.90160500      7.09317000     -0.03009070      0.01637030     -0.00770267       8
H               5.54480000      0.18951200      6.74876000      0.02158690     -0.02084220      0.00453839       1
H               7.83118000     -0.08440600      8.47264000      0.01106610      0.00573679      0.00884103       1
O              19.87980000     15.81020000     18.08150000      0.14372300      0.00198089     -0.12639600       8
H              15.34880000     19.65080000     22.82440000      0.00304201     -0.03014500     -0.00785527       1
H              18.62810000     15.85950000     19.05950000     -0.14061000     -0.00306298      0.11751400       1
O               7.53541000      4.91721000     23.34010000     -0.00374584      0.01762780      0.02336650       8
H               6.54474000      6.02139000     22.31110000     -0.00094786     -0.00756294     -0.01190850       1
H               7.15152000      3.14751000     23.00340000     -0.00518326     -0.00732556     -0.01711030       1
O               6.26985000     17.04220000     18.21170000     -0.02395240     -0.00664724      0.03897380       8
H               6.88063000     16.27580000     20.88830000      0.01148350     -0.00320673     -0.03899550       1
H               4.36744000     17.08340000     18.01230000      0.02654600     -0.02862820      0.01601200       1
O              17.58300000      8.09311000      5.65278000      0.04589520      0.02304120     -0.01577400       8
H              17.69340000      8.00256000      7.41237000     -0.00530500      0.00426035      0.02238710       1
H              16.02780000      7.49465000      5.13530000     -0.04091390     -0.02288890     -0.00857069       1
O              11.06360000      9.91402000      5.38445000      0.07453940      0.01359430      0.05486220       8
H               9.64258000      9.47278000      4.55937000     -0.06453830     -0.02449220     -0.02882850       1
H              10.95130000      9.25389000      7.06558000     -0.00541864     -0.00276654     -0.00509345       1
O              21.14840000      5.04291000     16.23480000      0.04099940     -0.16897400     -0.00631321       8
H              22.88980000      4.57541000     16.92550000     -0.04414720     -0.01053480     -0.02589890       1
H              21.33780000      6.63178000     16.53140000     -0.00199843      0.16455000      0.02830130       1
O               5.74174000     21.27700000     16.92020000     -0.04675180      0.02307920      0.01943790       8
H               6.84358000     21.99450000     15.71210000      0.01954890     -0.00083609      0.00339253       1
H               5.95492000     19.40220000     17.54020000      0.03224840     -0.00460229     -0.00907495       1
O              10.16430000     11.86870000     11.31020000     -0.01054670      0.02946610      0.02381280       8
H              10.74370000     12.92320000      9.95625000      0.00559394     -0.01255320     -0.01063120       1
H              10.43250000     10.11160000     11.27950000      0.00479608     -0.02160060     -0.02331630       1
O              15.45290000     23.13910000     11.35900000     -0.01459390     -0.00908100      0.00228290       8
H              15.30760000     21.29340000     10.78160000      0.00424243      0.02852530     -0.00332139       1
H              16.06520000     24.10970000      9.92917000      0.01421590     -0.00572497     -0.00523498       1
O               1.73949000     15.19690000     18.97020000     -0.04111730     -0.00786926     -0.04034810       8
H              -0.06464400     14.94380000     18.17210000      0.03532170      0.01288160      0.02472460       1
H               1.28943000     15.73770000     20.61990000     -0.00321777     -0.00172449      0.01424770       1
O               2.26871000      2.20438000     20.54560000      0.01222460     -0.01074660      0.00957245       8
H               2.44346000      0.72494300     21.66570000     -0.00699810      0.01525200     -0.01163640       1
H               3.33532000      1.86323000     19.07730000     -0.01195640      0.01061860      0.01256030       1
O              20.91980000      4.42386000     11.21330000     -0.01270250     -0.02843700     -0.02148880       8
H              19.93870000      4.57300000     12.72710000      0.00005225     -0.01863360      0.03154480       1
H              20.56760000      6.01580000     10.52020000      0.01402650      0.05614870     -0.01679130       1
O              17.40200000     12.34560000     13.40650000      0.05554500      0.00693795     -0.01768340       8
H              16.85870000     14.05030000     13.70540000     -0.02957950      0.00059538      0.00493371       1
H              16.39640000     10.93280000     13.59070000     -0.03714170     -0.00738707      0.00977599       1
O              10.66340000      0.48326800     17.22910000     -0.21486500      0.01534810     -0.05597180       8
H              12.15650000      0.44302400     17.68640000      0.21075300      0.00537310      0.05584950       1
H               9.79702000      1.81291000     18.18880000      0.00911812     -0.01943680     -0.00756835       1
O              15.21110000     17.01800000     13.49300000      0.01273770     -0.04094540      0.05161970       8
H              14.42030000     17.80390000     14.89820000     -0.00070667      0.01477010      0.00239725       1
H              14.78280000     17.75790000     11.95130000     -0.00523375      0.01917910     -0.03857520       1
O               7.35184000     23.43700000     21.42360000     -0.05634350     -0.03633860     -0.04044310       8
H               8.09502000     22.07270000     22.38650000     -0.00762170      0.00391003     -0.00377520       1
H               5.75967000     22.30830000     19.85610000      0.07737670      0.03580090      0.03400740       1
O               6.10581000     17.02700000      7.35179000      0.02952680      0.00771029     -0.00875205       8
H               4.45429000     16.48340000      7.66657000     -0.01439920      0.00210120      0.01301750       1
H               6.44885000     18.68250000      8.09695000     -0.01237030     -0.00715550     -0.00668214       1
O              14.58510000     19.62430000     18.27410000      0.05083760     -0.04545760     -0.00115658       8
H              16.08970000     20.76990000     18.64400000      0.00973263      0.02760890     -0.00462119       1
H              13.24570000     20.29340000     19.20770000     -0.03035580      0.00769266      0.01735690       1
O               5.13328000     13.06240000     14.67600000     -0.00947916      0.01609930      0.00922770       8
H               6.21385000     12.08650000     13.63080000      0.01289420      0.00909014     -0.00722045       1
H               5.66114000     14.73440000     15.13660000      0.01706430     -0.00319632     -0.00082165       1
O              20.08050000      2.86618000     22.45290000      0.09596010     -0.04836860     -0.00968984       8
H              18.80770000      3.80267000     21.95400000     -0.12514000      0.06658040     -0.01699830       1
H              21.09950000      3.64415000     21.10000000      0.01776820     -0.02047840      0.01682270       1
O               5.30707000      9.95918000     20.42350000      0.04032670     -0.01633320      0.00233521       8
H               4.51289000     10.34320000     21.95090000     -0.02576150      0.00508390      0.02440520       1
H               4.94401000     11.32720000     19.34570000     -0.02488030      0.01360690     -0.02675400       1
O               4.53714000     12.68080000      3.09264000     -0.01638440      0.00796995     -0.02191050       8
H               4.44713000     14.08240000      4.19242000      0.01606840      0.00309438      0.01229290       1
H               5.75011000     11.43210000      3.60933000      0.00315160     -0.01080360      0.01099930       1
O               5.58100000      5.40476000     11.92600000      0.00564550     -0.00523347      0.00096964       8
H               7.05036000      4.67849000     11.12700000      0.00056901      0.00893122     -0.00997086       1
H               6.31748000      5.47420000     13.65200000     -0.00345970      0.00621802      0.00196679       1
O              23.27660000     15.08620000      7.73416000      0.01015840     -0.03134170      0.02512900       8
H              23.68990000     16.78830000      7.59693000      0.01085260      0.07331660     -0.03150060       1
H              22.39360000     15.37480000      9.40263000     -0.00162659     -0.02117360      0.00653205       1
O              15.00460000     19.06930000      9.20387000      0.06776610     -0.01603960     -0.05137390       8
H              16.57230000     18.53350000      7.49509000     -0.04476270      0.00803366      0.04219160       1
H              13.38570000     18.54600000      8.68660000     -0.01952090     -0.00908957     -0.01185330       1
O               2.45621000      9.62657000     15.93910000     -0.00004720     -0.03490550      0.04152540       8
H               2.34875000     11.21880000     15.18950000      0.01053290      0.01205550     -0.02431610       1
H               2.77110000      8.28471000     14.81470000     -0.00157497      0.00377226     -0.01881220       1
O              14.23160000     11.48050000     22.09240000      0.02872380     -0.01200730      0.02120610       8
H              15.52260000     12.83510000     22.00490000     -0.03504640     -0.01029930     -0.01046980       1
H              12.59230000     11.83920000     21.35310000      0.01421230      0.00336576      0.00365134       1
O               2.15345000      2.35219000     10.82100000     -0.00025088     -0.06908670     -0.03506400       8
H               3.09785000      3.89211000     11.06640000      0.02506910      0.01315350      0.01794960       1
H               0.38803600      2.56474000     10.94040000     -0.02024650      0.01287400     -0.00051816       1
O              15.85860000      1.50132000     15.64470000     -0.04035250      0.01138100     -0.04623830       8
H              17.21190000      1.16280000     16.73310000      0.02748290     -0.01546030      0.00866140       1
H              15.77470000      0.77633200     13.64570000      0.01018370      0.00319787      0.02855040       1
O               3.04442000      7.64156000      7.40825000     -0.02509150      0.06970660     -0.00950112       8
H               2.60922000      9.67966000      8.03861000      0.02223210     -0.07658430      0.00907626       1
H               3.82351000      6.66915000      8.68132000      0.00940302      0.01166280      0.02927140       1
O              20.13270000      9.21612000     10.06560000     -0.04411870     -0.06122880     -0.01363880       8
H              18.83580000      9.51313000     11.26320000     -0.00728248      0.00758777      0.00724937       1
H              21.15620000     10.57550000     10.30070000      0.05989280      0.04916420      0.00942930       1
O              13.14300000      5.52398000     14.13190000      0.07234120      0.05268020      0.02075140       8
H              14.42250000      6.79187000     15.03130000     -0.05431450     -0.02691210     -0.02896670       1
H              13.92940000      4.05177000     14.83100000      0.01096280     -0.03350830     -0.00040195       1
O              17.47500000     17.17250000      5.27501000     -0.03379870     -0.02255230      0.00714175       8
H              16.09200000     15.90590000      5.08129000      0.00999267      0.01287240      0.00314461       1
H              18.65330000     16.38760000      4.08627000      0.01024320      0.01254750     -0.00348236       1
O              15.16850000      9.30530000     17.58400000      0.02389400     -0.04628150     -0.00488875       8
H              14.08830000     10.70810000     17.42780000     -0.03315100      0.00903654      0.00124044       1
H              16.67240000     10.07910000     17.02760000      0.04188510     -0.00205252      0.00702650       1
O              13.82570000      4.63085000      6.31105000      0.04774450     -0.00127205      0.02344560       8
H              15.19740000      3.30113000      6.58311000     -0.01584910      0.02055710     -0.00398188       1
H              12.33080000      3.86535000      5.82034000     -0.02116060     -0.02288990     -0.02137680       1
O              12.54850000      3.23166000      0.85555900     -0.02001210     -0.03008900      0.08458340       8
H              10.84220000      3.74560000      1.29298000      0.02149610      0.00580318     -0.03266340       1
H              13.28800000      3.52507000     -0.68004100      0.00713482      0.02360600     -0.05715490       1
O               1.11433000     16.31750000      0.95529600      0.01236910      0.01815480      0.00567496       8
H               1.97243000     15.14410000      2.05844000     -0.00286157      0.01066760     -0.00896797       1
H               1.32573000     18.15760000      1.37731000      0.00377697     -0.01873880      0.00723433       1
O               0.17501600     20.39070000      7.13767000      0.03321630      0.00346722      0.04384650       8
H               2.17840000     22.21670000     10.47870000     -0.01879930      0.01172500     -0.03708040       1
H               0.48326600     21.95540000      6.26081000     -0.00612313     -0.00519736      0.00038122       1
O              21.97170000      1.42306000      4.03539000     -0.00067822      0.04135170     -0.00739817       8
H              22.34390000      3.18432000      5.27116000     -0.01247660     -0.02602140     -0.02335800       1
H              21.37180000      2.62573000      2.69797000      0.00396976     -0.03019350      0.00451921       1
O              11.10610000     16.04380000      7.39099000     -0.19983100     -0.15373600      0.26788100       8
H              11.55920000     16.72710000      6.14955000      0.10568000      0.14357100     -0.28392600       1
H               8.82718000     15.90230000      7.02899000      0.08704790      0.00857468      0.02155210       1
O              13.80250000     13.16410000      3.92263000      0.11085700      0.09557160     -0.16614000       8
H              13.04410000     12.46170000      5.10832000     -0.09861730     -0.08233480      0.15647500       1
H              13.59030000     11.90610000      2.58823000      0.01055830      0.01715870     -0.00103430       1
O               7.83324000     15.18340000     22.63740000      0.00349908     -0.00241640     -0.01799370       8
H               6.57931000     13.89300000     22.92350000     -0.00830227      0.00048061      0.01258530       1
H               9.34506000     14.07550000     22.09210000     -0.02329100      0.02143090     -0.00676377       1
O               6.88644000      8.38800000      4.04893000     -0.01083100     -0.04664640     -0.03579090       8
H               5.87894000      7.61414000      5.35626000     -0.00893559      0.01155380      0.00809836       1
H               7.04763000      6.91312000      2.79411000      0.00350495      0.02790880      0.01436150       1
O              10.41610000      6.13749000      9.91290000      0.00854576     -0.00523375      0.00451182       8
H              11.29430000      5.56157000     11.45420000     -0.00271009      0.01045780     -0.01240240       1
H              11.69810000      5.82999000      8.61269000     -0.00013417     -0.00375426      0.00636089       1
O               1.89635000     11.65370000     10.80150000     -0.00144133      0.02505860     -0.03179720       8
H               1.85275000     14.08880000      8.23432000     -0.04362450     -0.01754210      0.02429640       1
H               2.30193000     12.99710000     12.01550000      0.00144672     -0.01879270     -0.01453550       1
O              12.33370000     12.35170000     15.75960000      0.00453994      0.03274510      0.04521660       8
H              13.12000000     13.97880000     15.70600000      0.00349935      0.01083930      0.01002350       1
H              11.98520000     12.23820000     14.05540000     -0.02886470     -0.01613360     -0.05947340       1
O              19.61310000     15.34950000      1.03668000     -0.08603490      0.02467640      0.01043570       8
H              19.34280000     13.61010000      1.06230000      0.00283583     -0.04069440     -0.00309220       1
H              21.26640000     15.76050000      1.20552000      0.07356690      0.01139600     -0.00253142       1
O               1.04100000      6.31721000      0.31754900      0.05584930     -0.06958120     -0.01126420       8
H               1.98048000      4.89089000     -0.71639200     -0.03358060      0.03261520      0.00967008       1
H               2.02364000      6.08270000      1.84089000     -0.01329930      0.01392960      0.00290318       1
O              23.44020000     10.53510000     21.69840000     -0.01200530      0.01117180      0.02921920       8
H              22.23860000     10.79320000     23.10190000      0.00632139      0.00592889     -0.02347790       1
H              23.72660000      8.74726000     22.09840000      0.01184910      0.00065056     -0.00156107       1
O              21.18380000      9.48467000     17.64440000     -0.00207139      0.03167300      0.05671070       8
H              21.95290000      9.90907000     19.49740000     -0.03105490     -0.01869750     -0.02631280       1
H              22.45070000     10.66390000     17.14230000     -0.00206953     -0.00204432     -0.03120670       1
O              22.28590000     20.62520000     20.13870000      0.00485220      0.00600828     -0.02666650       8
H              23.56010000     19.99080000     19.06300000      0.01209750     -0.01367000      0.00004009       1
H              22.55070000     20.10540000     21.81450000      0.00540164     -0.00498912      0.01283850       1
O               2.20066000      1.46420000     15.54860000     -0.00882100      0.00053746     -0.00188056       8
H               2.19656000      1.37035000     13.73340000      0.00254758      0.00877413      0.00813034       1
H               2.94506000     -0.10670400     16.03010000      0.00960107     -0.01114120      0.00694623       1
O               8.80106000      5.35791000     15.70220000     -0.00951336      0.05398780      0.04508730       8
H               9.44344000      8.26940000     17.53000000     -0.01015740     -0.06848860     -0.04040650       1
H              10.48680000      4.84545000     15.04320000     -0.01281120      0.02247160      0.01780970       1
O              18.22920000     22.44870000     19.29140000      0.06747770      0.00529560      0.00523112       8
H              19.94220000     21.54010000     18.45930000     -0.06303870      0.03210720      0.05242760       1
H              19.02880000     23.74850000     20.78340000     -0.02288810     -0.03982230     -0.04335260       1
O               6.73561000     19.81010000      2.15223000      0.01155020      0.06009010      0.00985957       8
H               7.18841000     19.85170000      3.90816000     -0.00410948     -0.01767320     -0.00728766       1
H               6.20227000     18.33620000      1.40150000     -0.00621171     -0.04053650      0.00276634       1
O              15.66050000      4.44835000     19.64380000     -0.02054470      0.07587270     -0.05552020       8
H              15.27580000      6.76217000     18.69350000      0.01615060     -0.07001210      0.04549200       1
H              15.58830000      3.57876000     17.95090000      0.00295561      0.00767402      0.03462910       1
O              19.07560000     10.25630000      1.11933000      0.03409720      0.01879930     -0.00465777       8
H              17.49420000      9.81288000      0.53123200     -0.04037130     -0.01365080     -0.02362150       1
H              18.94670000     10.01980000      2.86349000     -0.00277671     -0.01020870      0.03610040       1
O              15.37050000     15.96530000     21.44550000      0.02338150      0.07906910      0.05816700       8
H              16.35170000     16.18480000     23.22140000     -0.02090190     -0.00696958     -0.06705310       1
H              15.61640000     17.99730000     19.56230000     -0.03770510     -0.00425512      0.00529355       1
