192
TotEnergy=-1103.43674000 cutoff=-1.00000000 nneightol=1.20000000 pbc="T T T" Lattice="24.35325000       0.00000000       0.00000000      -0.00000100      24.35325000       0.00000000      -0.00000100      -0.00000100      24.35325000" Properties=species:S:1:pos:R:3:force:R:3:Z:I:1
O              20.43960000      2.72907000    -33.26740000     -0.01737990     -0.02523900     -0.00406149       8
H              20.02250000      3.11571000    -31.55070000      0.00895084      0.01732740      0.01648190       1
H              19.15430000      1.36254000    -33.43640000      0.00982700      0.00765103     -0.01081250       1
O              47.89440000     44.68070000     11.35180000      0.00748870      0.00113866     -0.07424000       8
H              49.11860000     43.31410000     10.63960000     -0.02980010      0.04090320      0.01771630       1
H              47.23410000     45.81110000      9.67172000      0.02771640     -0.03904740      0.05823480       1
O               9.54677000      1.14766000     13.72560000     -0.03131820     -0.01488100      0.04303040       8
H              10.10600000     -0.58433800     13.79210000      0.00930395      0.00276139     -0.00601806       1
H               8.23437000      1.09474000     15.15970000      0.02237630      0.01173930     -0.03604560       1
O              -4.58362000    -10.72530000     -0.81812300     -0.12258700     -0.07653260      0.08033970       8
H              -3.69530000     -9.57900000     -1.61615000      0.04993110      0.08606400     -0.05134370       1
H              -6.33273000    -10.05380000     -0.06991100      0.06182000     -0.00862181     -0.02817540       1
O               7.55871000     28.79450000     21.56890000      0.02623670     -0.03688820     -0.04571060       8
H               8.21687000     29.90230000     22.93250000      0.00500337     -0.00857164     -0.01267300       1
H               8.87719000     27.91350000     20.30780000     -0.03142440      0.04773260      0.04907320       1
O              -1.48119000     13.93420000      8.56525000     -0.07022290     -0.05339080     -0.00830927       8
H              -0.66762300     13.08860000      7.22314000     -0.00847196     -0.01804960     -0.02617120       1
H              -0.17507800     14.88640000      8.97974000      0.08064290      0.07334380      0.04127940       1
O              38.46680000     23.39730000     11.29290000     -0.02618040     -0.04193330     -0.01687780       8
H              39.22330000     24.60180000     10.07540000     -0.01455960     -0.03506450      0.00009235       1
H              37.53470000     21.78630000     10.50020000      0.04293550      0.06782500      0.01287340       1
O               0.73661800    -24.26290000     15.41090000     -0.04068670      0.03145140      0.00599881       8
H               0.63801400    -25.72880000     14.33810000     -0.01463300      0.00306345     -0.00830352       1
H              -0.97731600    -23.16530000     15.43640000      0.04457450     -0.03771550     -0.01013820       1
O              30.98870000    -35.61200000     17.74190000      0.03179330     -0.05247800      0.05220500       8
H              32.07350000    -36.22160000     19.31780000     -0.02600950      0.02151490     -0.05574790       1
H              30.95510000    -33.83390000     17.77470000     -0.00190773      0.03356110      0.00901815       1
O               8.47326000    -28.76330000    -24.93440000     -0.02257710     -0.00592170      0.03986020       8
H               9.70908000    -29.85780000    -25.55780000      0.04011250     -0.01798980     -0.04268030       1
H               8.35784000    -29.86640000    -23.44470000     -0.01938350      0.01899360      0.00378602       1
O             -13.93350000      3.47135000      4.86891000     -0.03308220     -0.05400400     -0.03592100       8
H             -15.33650000      2.14621000      4.30629000      0.02940350      0.05090280      0.02711720       1
H             -12.50830000      2.74178000      3.94454000      0.00124923      0.00985576      0.00732398       1
O              -9.24682000     26.38550000     51.31550000      0.00127827      0.01122180     -0.01307140       8
H              -8.71266000     26.03060000     49.61300000     -0.00513600     -0.01448230     -0.00263460       1
H              -8.78788000     28.15030000     51.23410000      0.00138241      0.01360450      0.01605130       1
O              14.93140000    -30.08350000    -18.21240000      0.00537050     -0.02552110      0.01582040       8
H              16.16490000    -31.37320000    -17.58730000      0.00265398      0.01191630     -0.01573710       1
H              13.58740000    -30.69930000    -17.12380000     -0.00842503      0.01779180     -0.00741952       1
O              27.39880000     16.64680000     34.08230000     -0.01213270     -0.00742956      0.00889433       8
H              28.11890000     17.29940000     32.56380000      0.00729178     -0.00046187      0.00044456       1
H              28.57610000     15.57320000     35.00100000      0.00333221      0.00544937     -0.00421922       1
O              -1.54361000      2.77747000      0.61821100     -0.00316833      0.08370610     -0.04271290       8
H              -0.07614700      3.88736000      0.71900000     -0.01346490     -0.00271483     -0.00707940       1
H              -0.99896300      1.46988000      1.53284000      0.01733040     -0.08134950      0.04525580       1
O             -26.62100000     23.72550000     31.51800000      0.10522300     -0.00309303     -0.00989467       8
H             -26.10050000     22.98430000     29.85620000     -0.02200230      0.00515784      0.01268360       1
H             -28.27240000     23.58470000     31.85390000     -0.09027850     -0.00569798     -0.00091118       1
O             -31.55850000      8.67709000     21.71350000      0.05142630      0.03959760      0.04691870       8
H             -32.82660000      8.50632000     20.55790000     -0.05057760     -0.01510780     -0.04917160       1
H             -31.35960000     10.53420000     21.67130000      0.01180840     -0.02456820      0.00758463       1
O             -16.20500000     63.44410000    -21.17500000     -0.06313470     -0.00709319     -0.00622580       8
H             -15.80410000     63.16510000    -19.42360000     -0.00032336      0.00049406     -0.00045488       1
H             -18.17160000     63.13380000    -21.35270000      0.06642740      0.00751418      0.00398810       1
O              65.33510000     23.22080000     40.05120000     -0.03922120      0.05708150      0.00809658       8
H              64.73970000     22.82010000     38.40350000     -0.02034480      0.00559773     -0.02437020       1
H              66.54860000     22.06520000     40.26910000      0.06728540     -0.06358470      0.01754470       1
O              54.37580000    -23.15290000      3.98615000      0.00808528     -0.02125100     -0.06126080       8
H              52.79830000    -22.73260000      4.69656000     -0.01730730      0.01155810      0.02179570       1
H              53.95360000    -23.57980000      2.12084000      0.01432460      0.00788478      0.04076930       1
O              35.13660000     18.81440000    -14.50230000     -0.01104450     -0.00548848     -0.01841790       8
H              34.57770000     17.05030000    -14.59490000      0.00986923      0.00138651     -0.00770139       1
H              34.84200000     19.20570000    -12.77140000     -0.00062547      0.00342420      0.02148190       1
O             -10.05740000      8.23884000     60.98600000      0.01374260     -0.00056608      0.00211335       8
H             -11.33960000      7.23078000     60.16500000      0.00616704      0.00150602     -0.00104492       1
H              -8.34864000      7.71817000     60.40400000     -0.02407120     -0.00429754      0.00391157       1
O               5.50844000     -0.05546900     -1.06823000     -0.00478680      0.00925937      0.00484300       8
H               6.61977000     -1.46978000     -0.87625500      0.00498992     -0.01100190     -0.00194148       1
H               6.57345000      1.36119000     -1.54051000     -0.00458365      0.00548702     -0.00193296       1
O              44.38140000      4.48803000     20.67950000      0.01586170     -0.05969880     -0.04762440       8
H              43.62220000      5.99566000     21.02740000     -0.02692510      0.05738690      0.02355580       1
H              45.59640000      3.94789000     21.87360000      0.00907053     -0.00309197      0.02182950       1
O              -1.49446000     61.07240000     27.79490000     -0.00993355      0.01069410     -0.04811330       8
H              -3.36847000     61.15500000     27.04360000      0.08155310      0.00191515      0.01177080       1
H               0.04505400     61.57280000     26.48790000     -0.06274370     -0.01199190      0.04017060       1
O              10.60650000     38.04160000      8.92666000      0.04311580     -0.00307458      0.01685890       8
H               9.24645000     37.41180000      9.84701000     -0.04801460     -0.00959202      0.01234180       1
H              11.87740000     37.55230000     10.27080000     -0.00102717      0.01631850     -0.03797820       1
O             -18.34030000     18.64970000     18.76040000     -0.02997030      0.02944180      0.04559140       8
H             -20.12410000     19.65000000     18.60960000      0.07483740     -0.02790130      0.02096840       1
H             -17.54900000     18.95240000     20.59240000     -0.03892030     -0.00160381     -0.06025020       1
O              33.01530000     31.86120000     49.80440000      0.00285840      0.00597161      0.00653931       8
H              33.62300000     30.84370000     51.16320000      0.02084720     -0.01822470      0.00681096       1
H              31.61200000     32.57540000     50.70870000     -0.01500620      0.00862968     -0.01315820       1
O              13.67370000     33.00220000     18.19660000     -0.00676811     -0.00015155     -0.01921320       8
H              13.93560000     33.62920000     16.44080000     -0.00794625     -0.02203940      0.02677300       1
H              12.92310000     31.24350000     18.26470000      0.01000410      0.02408850     -0.00817706       1
O              -1.30601000    -26.88320000     26.82090000      0.03666980     -0.00006908      0.01749590       8
H              -2.79149000    -27.41260000     25.90540000      0.01432490     -0.00962447      0.00045304       1
H               0.22259900    -28.08380000     27.08610000     -0.05158680      0.01011370     -0.01487580       1
O               3.10578000     13.56580000      1.24243000     -0.01749270      0.10152700     -0.05046080       8
H               3.49395000     11.90510000      1.15403000      0.01925410     -0.08645710      0.00747918       1
H               3.06268000     13.95080000     -0.70123600     -0.00851399     -0.00568051      0.05462380       1
O               5.24010000      2.00648000     16.25390000     -0.05925840     -0.00150453      0.03298370       8
H               3.61115000      1.25780000     15.21940000      0.03929990      0.02045720      0.05111310       1
H               4.63512000      2.32277000     18.15540000      0.01747260     -0.01668790     -0.07787600       1
O             -36.68110000     52.62890000    -30.48940000      0.05247470     -0.02856240      0.08931620       8
H             -36.91350000     53.03040000    -32.12600000     -0.00459240     -0.00120348     -0.07879870       1
H             -34.87530000     51.81170000    -30.01820000     -0.06272890      0.02014970     -0.01184430       1
O               1.84100000     51.65220000    -16.90200000      0.03394520      0.05100010      0.02183090       8
H               2.81807000     52.62260000    -15.46960000     -0.02572410     -0.04200310     -0.03694010       1
H               1.16358000     50.17090000    -16.19770000     -0.01028770     -0.01479930      0.01346390       1
O             -33.25210000     35.95510000      5.12748000     -0.06063010     -0.02682820     -0.07477000       8
H             -35.08170000     36.55870000      4.61267000      0.06512300     -0.01863680      0.02381720       1
H             -32.90060000     34.56190000      3.71302000     -0.00479015      0.03492810      0.05081180       1
O              22.63080000     34.17530000     13.01820000     -0.02969020      0.07330090     -0.01948140       8
H              24.34900000     34.11930000     12.55180000      0.03562050     -0.01905720     -0.01242590       1
H              22.36230000     35.93250000     12.17000000     -0.00383954     -0.04644910      0.02354490       1
O             -14.56980000    -19.78840000     10.01910000     -0.01797830      0.02224660      0.03837630       8
H             -13.71980000    -20.04230000      8.51325000      0.01254410     -0.01161700     -0.04398980       1
H             -14.34620000    -21.23500000     11.08530000      0.00688704     -0.01199650      0.00922121       1
O             -46.30950000      5.56321000     21.49220000      0.00711277      0.03269970     -0.06622890       8
H             -47.64970000      6.62140000     20.29490000      0.06973080     -0.04332160      0.04142050       1
H             -44.40600000      5.29303000     20.66040000     -0.06999470      0.01704310      0.03029560       1
O             -21.31270000    -15.08060000     34.84850000     -0.01096760      0.00013655     -0.04253320       8
H             -20.88560000    -16.80730000     35.29240000      0.01244410     -0.00224625      0.01074460       1
H             -21.67640000    -15.34690000     32.96860000      0.00266050      0.01695290      0.03597350       1
O              17.97260000     14.99440000     31.90210000      0.03685130      0.04848390      0.02174370       8
H              19.80660000     15.29750000     31.92080000     -0.01122960      0.00038215      0.00643134       1
H              17.89980000     13.33070000     31.39290000     -0.01745490     -0.04445840     -0.02457980       1
O             -22.52160000     -2.18980000     44.42750000      0.03119060     -0.01864550      0.06194360       8
H             -21.94640000     -0.90025200     45.68070000     -0.00585137     -0.02191390     -0.02538980       1
H             -23.25170000     -1.49497000     43.02550000     -0.02150510      0.03751650     -0.04368690       1
O              44.58470000      5.24026000     30.90770000      0.00939316     -0.02918960      0.05895100       8
H              44.06420000      5.38748000     32.90760000      0.01766150     -0.00320530     -0.06556980       1
H              45.65360000      3.66131000     30.76680000     -0.02502660      0.03363890      0.00373049       1
O              -8.66543000    -31.37210000     -9.39653000      0.06053150      0.02396980      0.02763720       8
H              -6.70326000    -31.49030000     -9.42086000     -0.05724200      0.00616512      0.00125515       1
H              -9.32240000    -32.31880000    -10.73740000     -0.00331571     -0.02170980     -0.02057510       1
O              53.55130000    -19.62970000    -12.96430000      0.06295660     -0.04208990      0.05186650       8
H              55.36880000    -20.01220000    -13.58020000     -0.03399250      0.02197190     -0.00998525       1
H              53.98370000    -20.34180000    -11.16690000     -0.02934180      0.02267430     -0.04100520       1
O              16.68470000     -0.49035700      6.69198000      0.01883640     -0.00895137      0.03379760       8
H              16.03180000      0.50753800      5.35314000     -0.00446312     -0.00069314     -0.02154560       1
H              16.30210000     -2.26884000      6.54809000     -0.01039170      0.00414598     -0.00860876       1
O             -36.93600000     -7.77361000     46.22480000      0.01310950      0.03315170      0.00449482       8
H             -37.46040000     -9.43073000     45.60080000      0.02170820      0.00422451      0.02583330       1
H             -35.53500000     -7.51735000     47.54730000     -0.02404180     -0.03572220     -0.02236950       1
O               6.55223000    -11.23650000    -12.13130000      0.01768070     -0.00731834      0.05870070       8
H               7.16031000    -11.37310000    -10.09720000     -0.03615610     -0.00833600     -0.08334530       1
H               5.61583000    -12.72540000    -12.80530000      0.00841861      0.00892627      0.02451630       1
O              20.97130000     18.95600000     15.82630000      0.01642280      0.00850691     -0.07966360       8
H              22.05870000     19.10560000     14.09150000     -0.03589200      0.00202223      0.05633440       1
H              22.09070000     18.71190000     17.19740000      0.00633052     -0.00701206      0.01290520       1
O              10.81710000     19.83900000     -9.62972000      0.04494850     -0.04114120      0.10516400       8
H              12.74800000     19.66980000     -9.10247000     -0.05352610      0.00565182     -0.03163430       1
H              10.16650000     18.93450000     -7.91933000      0.00757397      0.03709890     -0.06969190       1
O              25.12390000     57.08190000     30.05740000      0.06358060      0.06827310     -0.05464200       8
H              23.99060000     58.41490000     29.50490000     -0.00772796     -0.00157269     -0.00335212       1
H              24.36450000     55.97490000     31.04740000     -0.05777700     -0.07144720      0.05161800       1
O              -7.10354000      7.17342000      2.83895000      0.02412650      0.00611892     -0.07249400       8
H              -5.90398000      6.54759000      4.12645000      0.00315395      0.00053152     -0.00939732       1
H              -6.25257000      7.33498000      0.97710300     -0.03194940     -0.00688546      0.07849030       1
O              14.63530000    -27.81250000     20.23860000     -0.03510030     -0.01625390      0.09062890       8
H              13.57360000    -29.30390000     20.44450000      0.00423514      0.00246489      0.00265038       1
H              14.85240000    -27.64570000     18.59120000      0.01416980      0.01730180     -0.10340900       1
O              -5.70071000     20.73480000     47.08060000      0.08274780     -0.03434150      0.04811620       8
H              -4.24065000     19.62770000     46.50210000     -0.03805570      0.03145550     -0.00131042       1
H              -6.91319000     21.07990000     45.86170000     -0.02519580     -0.00542857     -0.03341890       1
O              40.04540000     41.10140000      0.99942700     -0.00531808     -0.00578627      0.00335780       8
H              41.34780000     42.23260000      0.40811900     -0.00313446      0.01362410      0.00286142       1
H              39.62030000     41.52610000      2.76098000      0.00557906      0.00187945     -0.00895033       1
O              23.07090000     17.86820000    -28.13650000      0.05726660     -0.08620850     -0.00580304       8
H              24.26700000     16.16350000    -28.18590000     -0.05748740      0.04118300      0.01013240       1
H              24.52060000     18.69340000    -28.80900000      0.00305124      0.04069910      0.00623520       1
O             -22.27900000     42.68860000      4.23195000      0.01949160      0.05854890      0.02821800       8
H             -21.58840000     41.29900000      3.40275000      0.01242780     -0.02544360     -0.01834330       1
H             -20.81800000     43.80060000      4.81195000     -0.02629350     -0.02834320     -0.01183410       1
O               6.29894000    -28.16500000     31.32060000      0.04638430      0.07261350     -0.02400700       8
H               7.61829000    -28.37120000     32.53030000      0.00510839     -0.03266150      0.02452260       1
H               7.31230000    -26.54860000     30.73810000     -0.05456240     -0.04103880     -0.00448129       1
O               3.64639000     33.11910000      1.37526000      0.07758390      0.06950710     -0.01615140       8
H               3.46481000     32.36170000     -0.15766100     -0.01348490     -0.03914710     -0.05422150       1
H               2.62226000     32.49450000      2.54077000     -0.06620960     -0.04159440      0.07192310       1
O              -9.34461000    -10.83570000     11.43850000     -0.18216600      0.10498400      0.08025520       8
H              -8.88650000    -12.29310000     11.83690000      0.04628770     -0.18662200      0.05460170       1
H              -8.24251000    -10.26980000     10.45730000      0.13437800      0.07847880     -0.13110300       1
O              -5.19695000      6.47238000     11.34190000     -0.01170140      0.03718100     -0.03713500       8
H              -4.11596000      7.99730000     11.53910000     -0.00017913     -0.02651850      0.01157550       1
H              -5.00693000      5.30191000     12.64470000      0.01435830     -0.01698910      0.03219260       1
O              26.16440000    -11.11530000     -3.65546000      0.12003200      0.06177940     -0.00668543       8
H              27.90160000    -11.72870000     -4.38950000     -0.04431900      0.03253770      0.01055790       1
H              25.28280000    -12.49110000     -3.98816000     -0.07541830     -0.08900590     -0.01670770       1
O              22.84720000      9.36152000     42.81810000      0.03121020      0.04190520      0.02487170       8
H              22.14300000      7.78357000     43.04160000     -0.02378540     -0.03552710     -0.00780369       1
H              23.03550000      9.85829000     41.10050000     -0.00793347     -0.00967176     -0.01651370       1
O              15.11160000     26.33130000     45.82750000      0.01736150     -0.04973260      0.00196879       8
H              17.02350000     26.30830000     45.42500000     -0.05066250     -0.01002300      0.01489860       1
H              14.29180000     24.51640000     46.15440000      0.04296100      0.05706840     -0.02300400       1
O             -13.60880000     11.46600000     21.83630000     -0.05652370      0.02006200      0.05105430       8
H             -12.51470000     10.32230000     21.20810000      0.05506950     -0.04164500     -0.05253180       1
H             -14.09050000     10.42750000     23.31050000     -0.00863310      0.02261630     -0.00403834       1
