192
TotEnergy=-1103.44942000 cutoff=-1.00000000 nneightol=1.20000000 pbc="T T T" Lattice="24.00134000       0.00000000       0.00000000      -0.00000100      24.00134000       0.00000000      -0.00000100      -0.00000100      24.00134000" Properties=species:S:1:pos:R:3:force:R:3:Z:I:1
O              18.32540000      3.53387000    -30.49800000      0.00178336     -0.05938820      0.00007619       8
H              19.39000000      2.54446000    -29.24010000     -0.01340600      0.02923050     -0.02870210       1
H              17.68590000      2.13868000    -31.62690000      0.00226780      0.01110390      0.02578790       1
O              49.80130000     44.67600000      9.23154000      0.06033680     -0.01296420      0.11700200       8
H              50.29310000     42.94020000      9.71763000     -0.00767450      0.00584740     -0.01097500       1
H              49.03890000     44.85610000      7.77046000     -0.05481070      0.00313862     -0.10482400       1
O               9.29953000      0.98483900     15.59280000     -0.02422170     -0.03869850      0.00883149       8
H               9.78136000     -0.80218000     15.79280000      0.00807900      0.02503620     -0.00417967       1
H               7.41689000      0.86557300     16.15210000      0.04134010      0.02390840     -0.00839739       1
O              -4.42821000    -10.18010000     -0.53665700      0.02001900     -0.04496980      0.01722480       8
H              -4.65283000     -8.46718000     -0.53710800     -0.01854020      0.06118050     -0.01125320       1
H              -3.84453000    -10.41220000      1.17392000     -0.00031416     -0.01426400      0.00125430       1
O               7.03404000     29.89650000     20.84420000     -0.05284540      0.05874060      0.08595880       8
H               7.78391000     30.68680000     22.41400000     -0.02948200     -0.00779372     -0.03082290       1
H               8.52749000     29.27630000     20.34370000      0.08234550     -0.04428210     -0.05624360       1
O              -0.65111800     13.03880000      8.41597000     -0.06966130     -0.03721320     -0.06037600       8
H              -0.87325900     12.45030000      6.48741000      0.00984873      0.01320630      0.05213020       1
H               0.94529200     13.65590000      8.55140000      0.05838450      0.02856520      0.00557792       1
O              37.21370000     21.98790000     11.51670000     -0.02373810      0.08913760      0.06006820       8
H              37.89160000     20.85450000     10.44090000      0.01298200     -0.06369600     -0.04423660       1
H              35.70300000     21.63090000     12.50690000      0.01175770     -0.02088370     -0.02019140       1
O              -1.92809000    -24.80960000     11.77470000      0.01074060      0.01236040     -0.03878760       8
H              -0.37886400    -25.71740000     10.93470000     -0.04656590      0.03006440      0.01164080       1
H              -2.70077000    -23.43670000     10.60680000      0.03467880     -0.04269710      0.03093310       1
O              29.55440000    -34.32680000     17.74070000     -0.08381850      0.01490530      0.00890267       8
H              31.23250000    -34.14250000     17.48120000      0.07447070      0.00708477     -0.00495359       1
H              28.90210000    -32.56490000     17.82290000      0.00964040     -0.02861540     -0.00321312       1
O               6.12623000    -27.50420000    -25.86410000      0.00064584     -0.02807110      0.02421680       8
H               7.84498000    -28.40350000    -26.03640000     -0.03794330      0.01412220      0.01744820       1
H               4.99782000    -28.36830000    -24.42790000      0.03886460      0.01179290     -0.03526440       1
O             -10.94500000      1.60860000      4.73766000      0.02788010     -0.02064680      0.08655650       8
H             -12.68130000      1.49412000      4.95902000     -0.04252850     -0.01041440     -0.00299444       1
H             -10.64040000      2.22118000      3.18735000      0.01398730      0.02965050     -0.08528270       1
O             -12.03750000     32.19130000     47.97120000     -0.04774270      0.09248490     -0.01396480       8
H             -11.65690000     30.57420000     47.96530000      0.02328500     -0.11166900     -0.00261271       1
H             -10.74440000     32.98630000     48.86820000      0.02192350      0.01967070      0.01598000       1
O              15.06320000    -29.45710000    -16.23680000      0.03581380     -0.02032690     -0.01149720       8
H              16.55610000    -30.68190000    -16.54630000     -0.03937920      0.02185790      0.00977475       1
H              13.89530000    -29.71980000    -17.61870000      0.00291291     -0.00507180     -0.00027055       1
O              27.64190000     15.88000000     34.23440000      0.03469190     -0.00617921     -0.01270140       8
H              29.29680000     16.59780000     33.60350000     -0.03098530     -0.01365150      0.01674890       1
H              28.15100000     14.21710000     35.11010000     -0.00436312      0.03719000     -0.00074967       1
O              -1.41308000      2.00594000     -2.81304000      0.02833740      0.06123780     -0.01241250       8
H               0.04078400      3.33433000     -2.63571000     -0.03950050     -0.02981310     -0.01634040       1
H              -0.83544500      0.70582700     -1.77979000      0.00560176     -0.03663470      0.02580740       1
O             -25.44730000     23.65340000     29.67610000     -0.10304900     -0.00784026      0.01713600       8
H             -24.96720000     23.08450000     28.14650000      0.05701390     -0.02148500     -0.07391340       1
H             -27.38320000     23.14430000     28.93850000      0.04798340      0.02510470      0.05964030       1
O             -29.76650000      9.63415000     20.79190000     -0.03203990      0.03916310      0.04645980       8
H             -31.52680000     10.07990000     20.18400000      0.03155030     -0.01919280      0.00117976       1
H             -29.68400000     10.78540000     22.39420000      0.00433925     -0.02109070     -0.05035420       1
O             -13.04410000     59.89570000    -18.60610000     -0.02334080     -0.03337820     -0.04540130       8
H             -13.66820000     60.62780000    -17.15300000     -0.00148206      0.02832550      0.05663840       1
H             -14.66820000     59.07110000    -19.05380000      0.02504930      0.00069575     -0.01503100       1
O              64.28310000     22.65360000     39.78890000      0.00037705     -0.04092140     -0.01722860       8
H              63.16040000     22.25150000     38.36670000     -0.00715487      0.02447050     -0.00341389       1
H              65.09400000     20.95620000     39.56030000      0.00950787      0.02255960      0.01704050       1
O              55.96760000    -23.50440000      4.51097000     -0.02963860      0.00566801      0.00231178       8
H              54.57670000    -23.12430000      5.93474000      0.02929120     -0.01348080     -0.04606290       1
H              55.55630000    -23.12220000      2.66972000     -0.00800307      0.00417317      0.04372490       1
O              32.47430000     18.41790000    -14.25570000     -0.01744820     -0.02519060     -0.08073060       8
H              33.04360000     16.68530000    -14.61080000      0.00430401      0.00757953      0.00805083       1
H              32.82090000     18.61650000    -12.58240000      0.01380610      0.01328890      0.06069920       1
O              -9.90917000      7.45219000     61.59860000      0.06126540      0.02697440     -0.00090228       8
H             -10.75320000      5.99949000     61.08660000     -0.01447500     -0.02436590     -0.01412800       1
H              -7.92821000      7.12252000     61.30660000     -0.04233850      0.00350873      0.01651210       1
O               6.03152000      1.56428000     -0.41418400     -0.01556160      0.12598900      0.08526280       8
H               6.16258000      0.26041300     -1.33673000      0.01577850     -0.17599700     -0.07527530       1
H               5.85056000      2.59559000     -1.86009000      0.00251776      0.04342590     -0.00767699       1
O              42.49710000      4.97733000     23.86780000      0.00923967      0.06761500     -0.00884735       8
H              42.84520000      6.82133000     23.17440000     -0.01711250     -0.06124130      0.00832838       1
H              43.63260000      3.89618000     22.96390000      0.01029240     -0.00250756     -0.00266818       1
O              -1.52886000     59.42470000     27.69780000      0.05804830     -0.01714480     -0.03763960       8
H              -2.03020000     57.67420000     28.19630000      0.00841686      0.02314090     -0.00456694       1
H               0.19112000     59.37070000     26.59450000     -0.06185150      0.00055907      0.04131750       1
O              10.05480000     37.62320000     10.21380000      0.12155900      0.02058810     -0.05463110       8
H               9.07970000     36.80570000     11.30270000     -0.06511780     -0.04770360      0.06387210       1
H              12.03080000     36.84750000     10.56860000     -0.06236060      0.02554340     -0.01434710       1
O             -18.63890000     19.27920000     17.49100000      0.02029300     -0.02032560     -0.03075710       8
H             -19.99840000     20.13120000     16.80470000     -0.03707550      0.01338650     -0.02607640       1
H             -18.70670000     19.87250000     19.16860000      0.01070250      0.00765312      0.04912900       1
O              31.12570000     34.05280000     49.71880000      0.05484100     -0.05020280     -0.03729720       8
H              32.97210000     33.45050000     48.84270000     -0.06895740      0.02588270      0.03568690       1
H              30.11990000     32.39450000     49.81360000      0.01567190      0.03599730      0.00897396       1
O              13.44300000     33.75650000     18.17670000     -0.02835740     -0.00443107      0.02568710       8
H              13.41290000     33.24330000     16.46190000      0.01609430     -0.01054690     -0.03056860       1
H              12.12730000     32.57830000     18.76530000      0.01806680      0.00899864      0.00739139       1
O              -0.44068100    -26.86770000     24.51700000      0.05227530      0.04517420      0.02578450       8
H              -1.71414000    -27.82670000     23.84300000     -0.03389240     -0.03611270     -0.01722190       1
H               1.06033000    -27.78100000     25.11510000     -0.01953110     -0.00455711     -0.00775543       1
O               3.19137000     13.53060000      0.51841300      0.06061890     -0.04987990      0.05686500       8
H               4.90313000     12.37740000      0.61012100     -0.05678110      0.03284380     -0.01399150       1
H               2.58404000     13.90130000     -1.09729000      0.00312583      0.00140992     -0.03461130       1
O               4.82640000      1.99692000     16.57270000     -0.03773790      0.00461442      0.01024660       8
H               3.70520000      0.49453600     16.49220000      0.00223585      0.03369410      0.00243379       1
H               3.91780000      3.53594000     17.32560000      0.01359110     -0.03752660     -0.00568687       1
O             -36.74960000     52.33400000    -29.21090000     -0.07086710      0.05938550     -0.14727700       8
H             -37.24120000     51.23410000    -30.92300000      0.01421640      0.02287190      0.06962210       1
H             -36.04990000     51.38370000    -28.07670000      0.06215840     -0.08589130      0.08550210       1
O               4.58243000     48.83510000    -15.33320000      0.00692258     -0.03274000      0.04176970       8
H               5.59931000     49.60160000    -13.84960000     -0.02513110     -0.00991608     -0.03413350       1
H               3.72676000     47.09050000    -14.70050000      0.02411040      0.04926210     -0.02471040       1
O             -31.73800000     35.36030000      3.40707000      0.02611300     -0.00568718     -0.02422120       8
H             -33.22000000     36.02420000      4.11439000     -0.02776330     -0.00791321      0.01304210       1
H             -31.26320000     33.70050000      4.01914000     -0.00597037      0.01006910      0.01244090       1
O              23.02750000     33.28570000     12.24700000      0.08559800     -0.08946070      0.08804470       8
H              24.95360000     32.69390000     11.88930000     -0.06479260      0.01156710      0.00245298       1
H              22.55450000     34.28270000     11.00830000     -0.02474300      0.07260990     -0.08788750       1
O             -12.24090000    -20.55170000     10.28490000      0.00161275     -0.05858230     -0.03388940       8
H             -12.24200000    -21.09310000      8.46156000      0.00117382      0.03224640      0.02111430       1
H             -11.83930000    -22.32820000     10.77350000      0.00287280      0.01789680      0.01570060       1
O             -45.81490000      5.46450000     19.70640000     -0.01714110      0.04684850     -0.00565152       8
H             -46.97110000      6.71888000     18.75590000      0.02600590     -0.02267620      0.02675390       1
H             -44.66150000      6.51040000     20.78890000     -0.01892050     -0.01792930     -0.02859600       1
O             -20.55190000    -16.61010000     34.48500000      0.03557720     -0.04380050     -0.01351960       8
H             -18.96490000    -17.55270000     35.15170000     -0.03068140      0.02062830     -0.00944336       1
H             -20.94470000    -17.81260000     33.03160000     -0.00947841      0.03197980      0.02279330       1
O              18.24070000     14.31710000     31.41480000     -0.00815786      0.01581340      0.00778376       8
H              20.04830000     14.63810000     31.28460000     -0.00694046     -0.01057740      0.00016074       1
H              17.50210000     13.78010000     29.82580000      0.01643040     -0.00697313     -0.00099137       1
O             -23.98510000     -1.24923000     40.42990000      0.03232860     -0.01297010      0.03987370       8
H             -24.51790000     -0.06548900     41.68000000     -0.00042488      0.00707450      0.01434800       1
H             -25.04170000     -0.92084400     39.07030000     -0.02527990      0.00978133     -0.05343130       1
O              43.12570000      3.59975000     32.98790000     -0.01090650      0.00352532      0.02484170       8
H              42.64160000      4.62003000     34.60330000      0.01199520     -0.03939480     -0.03142250       1
H              42.43530000      1.85434000     32.76860000      0.00101150      0.03559410      0.00887965       1
O             -10.26600000    -31.44110000     -9.85072000     -0.12988100     -0.04421340     -0.03539730       8
H              -8.63870000    -31.38280000     -9.75313000      0.14744600      0.02852470      0.02861950       1
H             -10.16880000    -32.88540000    -11.06590000     -0.02383520      0.01809230      0.01456790       1
O              55.04020000    -19.89210000    -12.23660000      0.05528820      0.00303983     -0.07009050       8
H              57.00440000    -20.31510000    -12.65610000     -0.04708280      0.01723880      0.01076200       1
H              54.67810000    -20.29830000    -10.60850000     -0.00765952     -0.01799240      0.06031510       1
O              17.50040000     -1.11503000      5.87621000     -0.03763980      0.02167860     -0.00355590       8
H              16.17580000      0.25437800      5.34923000      0.02729500     -0.05215090      0.01805640       1
H              16.63400000     -2.68228000      6.53901000      0.00608043      0.03036500     -0.01282280       1
O             -37.20740000     -5.79026000     45.89270000     -0.01585050      0.01984110     -0.05183130       8
H             -37.03900000     -6.97587000     44.48320000     -0.00082003     -0.00291834      0.00967233       1
H             -36.29090000     -6.45985000     47.21640000      0.01912070     -0.02270920      0.04412370       1
O               5.44332000    -11.95680000    -11.30200000     -0.04203590     -0.06317190      0.00810067       8
H               4.95167000    -12.36950000     -9.37239000      0.01223850      0.02009930     -0.06791250       1
H               4.56187000    -13.27110000    -12.59910000      0.03242890      0.03273460      0.05634530       1
O              18.67710000     17.98510000     14.42630000     -0.03792500     -0.02156150      0.05960660       8
H              19.53240000     18.43710000     13.03810000      0.03855970      0.02440830     -0.07154360       1
H              19.96870000     17.60680000     15.64640000      0.00130314     -0.00008544      0.01285430       1
O               9.53750000     19.85060000     -9.69235000     -0.02056100      0.04625190     -0.02568740       8
H              10.29000000     18.68260000     -8.70359000      0.04443390     -0.05264740      0.03335900       1
H               8.02347000     20.11920000     -8.77744000     -0.02922560      0.00118504      0.00936301       1
O              25.36650000     52.27280000     30.40840000      0.01828800     -0.00295644      0.00682931       8
H              23.57170000     51.89570000     30.69430000      0.02678230     -0.01030080      0.00122423       1
H              26.58730000     50.94490000     31.05690000     -0.03894020      0.00912255     -0.00263658       1
O              -4.40821000      7.48733000      5.44319000      0.01334540      0.01262990     -0.09984890       8
H              -4.81746000      6.30089000      6.66488000     -0.00657687     -0.04119190      0.02953650       1
H              -4.27127000      6.55961000      3.69794000     -0.00930722      0.01725230      0.06046020       1
O              13.91430000    -25.30600000     20.40440000     -0.01397420      0.00759129      0.07249680       8
H              13.22320000    -26.81200000     21.15600000     -0.00669842     -0.00617739     -0.02120600       1
H              14.42280000    -25.32730000     18.74210000      0.01670840     -0.01484490     -0.05104490       1
O              -5.25077000     19.24510000     46.52050000     -0.06460750      0.03637510      0.05463350       8
H              -4.72361000     18.72370000     44.95920000      0.02067700     -0.00944945     -0.05711870       1
H              -6.85761000     20.26390000     46.24910000      0.04305700     -0.02507390      0.00650094       1
O              36.04210000     40.56330000      2.99381000     -0.02245180     -0.02902410      0.01306760       8
H              34.53260000     41.49040000      3.57174000      0.00795648      0.01383340     -0.00600647       1
H              35.36900000     38.85190000      3.46059000      0.02171120      0.01764370     -0.00970085       1
O              21.79440000     18.65280000    -29.33640000     -0.03829030      0.08856820     -0.04980190       8
H              23.00060000     17.50230000    -29.10450000      0.06213280     -0.07416980      0.01995510       1
H              22.69920000     20.02880000    -30.34240000     -0.02039920     -0.01729670      0.02357630       1
O             -20.17950000     42.27960000      2.15832000      0.04734570     -0.07809060      0.04669710       8
H             -20.11770000     40.11580000      2.45277000     -0.01828240      0.08196340     -0.03599400       1
H             -18.53830000     42.57800000      3.20494000     -0.03400420      0.00725615     -0.01689930       1
O               8.21134000    -28.63840000     28.68510000     -0.00343070      0.06810130      0.01649540       8
H               8.38069000    -28.52570000     30.62020000     -0.00663558     -0.00159831     -0.04014450       1
H               8.10312000    -26.59500000     28.10990000      0.00728527     -0.06139040      0.03120030       1
O               4.08190000     30.09870000      2.24575000      0.03045190     -0.01551810     -0.07982070       8
H               4.59440000     28.88990000      0.83033000     -0.01208670      0.03136300      0.03594500       1
H               3.39648000     28.94070000      3.36613000     -0.02541330     -0.01842470      0.04151830       1
O              -9.29433000    -11.70290000     11.17400000     -0.00341773      0.12611100     -0.07432360       8
H              -8.82357000    -13.09240000     11.91450000      0.03057170     -0.11472900      0.05788310       1
H              -7.83885000    -10.99320000     10.17450000     -0.02151130     -0.01237740      0.00847764       1
O              -5.01591000      6.39990000     13.72620000     -0.01327830     -0.02840650      0.01910940       8
H              -3.51729000      7.53662000     13.54440000     -0.01479640     -0.02499760      0.00079374       1
H              -5.27291000      4.94882000     15.43300000      0.03217270      0.05810800     -0.03255610       1
O              23.83970000     -9.79615000     -3.92972000      0.10283500      0.07929370     -0.08623250       8
H              23.25350000    -11.14230000     -4.80112000     -0.00623931     -0.05930580     -0.07135230       1
H              22.98990000    -10.20010000     -2.63086000     -0.09151190     -0.01787840      0.15766800       1
O              22.66310000      9.68770000     41.64870000     -0.01859060     -0.01187740      0.01095780       8
H              21.08730000      9.62067000     42.70890000      0.01577470     -0.00403539     -0.02230880       1
H              22.25970000      9.26053000     39.88750000      0.00391112      0.01232760      0.01637590       1
O              14.12480000     26.39070000     47.79930000     -0.00103182      0.02276800      0.00797764       8
H              15.61250000     27.51110000     47.43810000     -0.01283180     -0.02995690      0.00198381       1
H              14.14470000     24.69350000     47.07230000      0.01193580      0.02136020     -0.00910322       1
O             -12.98630000     14.24030000     18.26590000      0.00978657      0.00542392     -0.02705060       8
H             -12.28840000     14.97350000     16.71020000     -0.00281984      0.00399616      0.01093590       1
H             -12.06220000     12.62770000     18.15300000     -0.00514697     -0.00201310      0.01594920       1
