192
Lattice="23.97183 0.0 0.0 0.0 23.97183 0.0 0.0 0.0 23.97183" Properties=species:S:1:pos:R:3:force:R:3 TotEnergy=-1103.38651 cutoff=-1.0 nneightol=1.2 pbc="T T T"
O       23.85340000      19.86537000      20.37956000      -0.05804810       0.03019190      -0.00724800
H       22.38070000      20.00983000      19.13916000       0.02617360      -0.00011799       0.01790240
H        0.73027000      18.44241000      19.81146000       0.02700030      -0.03199430      -0.00905608
O       22.65907000      20.44577000       2.14505000       0.00606793       0.00372952       0.04422200
H       23.52977000      22.05977000       1.73417000      -0.01104760      -0.00871734      -0.00942713
H       21.83057000      19.73917000       0.76965000      -0.00744402      -0.00064642      -0.03408820
O        9.34719000       1.58938000      13.53980000       0.00542345       0.03363250      -0.00345674
H       10.09350000       3.12743000      14.48010000      -0.01529130      -0.06700710      -0.01137550
H        9.37154000      23.76128600      14.09790000       0.00975406       0.03263000       0.01035770
O       19.15499000      14.14358000      22.23880000       0.00227688      -0.00947364      -0.00250480
H       20.82064000      13.38393000      22.02430000      -0.00904388       0.01588620       0.00088098
H       19.13569000      15.59630000      23.35345000       0.00967092      -0.00895506       0.00011471
O        7.00373000       6.92477000      17.25700000       0.02225210       0.01661790      -0.03675530
H        8.16583000       7.80757000      18.39650000      -0.00917181       0.00097989       0.00583561
H        7.65104000       7.51777000      15.55970000      -0.02216310      -0.02069030       0.02953510
O       16.91681000      11.81510000       9.14212000      -0.00986695      -0.01962170      -0.00626257
H       16.26764000       9.86654000       9.36727000       0.02301480       0.05609330      -0.02731180
H       17.86650000      12.25460000       7.59342000      -0.01184370      -0.02330820       0.01931460
O       19.68077000       0.36067000      13.22050000      -0.20706200      -0.14172400       0.00408463
H       20.98217000       1.23137000      13.19800000       0.18192100       0.11591900      -0.02577790
H       18.67437000      23.81220000      11.62940000       0.02658880       0.02327190       0.02992740
O        0.07011500      19.49006000       9.04017000      -0.05725270      -0.02409030      -0.01745230
H        0.44780800      17.67906000       8.63756000      -0.00761179       0.03223100       0.00676842
H       22.05505000      19.71176000       8.58780000       0.06843730      -0.00910096       0.00807907
O        7.93447000      14.85836000      22.55200000       0.04539640       0.03466600      -0.00106662
H        9.42807000      16.14506000      22.71310000      -0.04043930      -0.02358580      -0.00783401
H        8.58747000      13.68606000      21.32970000      -0.00289248      -0.01180880       0.00360708
O       10.87890000      19.07696000      23.19786000      -0.05037660      -0.02682670       0.06499910
H       12.55410000      19.32676000      22.55436000       0.01291760       0.01288380       0.01058720
H       10.81640000      18.91916000       1.21223000       0.01498590       0.01826870      -0.06014420
O       12.82373000       2.85513000       7.54418000       0.01182620      -0.02667200       0.11133900
H       11.71693000       1.67885000       8.51936000       0.01346610       0.02534490      -0.02954860
H       12.31463000       3.09451000       5.93367000      -0.02150600      -0.00140129      -0.06868350
O       12.87033000       2.85737000       2.59704000       0.03505320      -0.00528798      -0.00462896
H       11.23703000       3.17287000       2.11114000      -0.06143500       0.01464050      -0.00295580
H       13.43803000       2.34627000       0.95274000       0.02406420      -0.00651364      -0.00581232
O       13.74080000      19.91416000      12.40543000      -0.05493010       0.04484140       0.03954470
H       14.15140000      18.44046000      11.44453000      -0.02031280      -0.01727530      -0.00662102
H       11.78610000      20.23796000      13.04573000       0.06680910      -0.02859500      -0.02556010
O        2.21977000      14.71480000      10.72767000       0.02140010      -0.06929730      -0.01966400
H        2.64107000      12.80210000      10.34767000      -0.03377910       0.06079830      -0.00557793
H        3.40607000      14.72280000      12.09057000       0.00038203       0.01292530       0.02105280
O        0.36370800       0.95745600       0.99147700       0.03882160       0.03499580       0.07851690
H        1.45116000       1.51218000       2.83674000      -0.03740570      -0.02437810      -0.08755250
H        1.46014000       0.87236900      23.43182600       0.00994474      -0.00554640       0.02289850
O       19.34436000      20.04570000       6.76207000       0.00703027       0.03339380      -0.04362960
H       20.02466000      20.77290000       5.09467000      -0.00232485      -0.01849940       0.03865810
H       18.46936000      21.50250000       7.51707000      -0.00319891      -0.01412300       0.00169043
O       16.05576000      10.78290000       0.67217000       0.05815790       0.02644680       0.01898310
H       15.10606000      10.63380000      23.21390000      -0.04420650      -0.02073750      -0.04903610
H       17.49346000      11.70860000      23.76190000      -0.01460520      -0.00623869       0.02241990
O        7.55123000      15.20094000       3.80003000      -0.01967930       0.00331159       0.08884430
H        5.80973000      14.96244000       4.49323000       0.03481560       0.00770356      -0.01952710
H        7.49083000      15.24164000       2.08293000      -0.01429890      -0.00863165      -0.06529090
O       20.42424000      19.70730000      16.62577000       0.01121420      -0.07004100       0.05254360
H       20.23314000      21.08160000      15.63527000      -0.01609620       0.06240230      -0.04756160
H       18.82464000      18.84380000      16.97657000      -0.00162507       0.01640640      -0.00710662
O        7.07284000       3.80423000       1.50505000      -0.02111630      -0.01434960      -0.01524230
H        5.69484000       3.13893000       2.64473000       0.02306070       0.00682096      -0.02091120
H        6.80724000       3.32513000      23.60183900       0.00705730       0.00861776       0.04448790
O        6.50427000      18.32890000      10.08503000       0.07057630       0.07708840       0.02556910
H        7.42787000      16.83770000      10.17653000       0.00753176      -0.04698460      -0.00676177
H        4.84627000      18.20390000       9.81613000      -0.08294180      -0.02401460      -0.01555910
O        8.58153000       7.43303000      11.66724000      -0.08079470       0.06027490      -0.02877140
H        7.92793000       7.94285000       9.65274000       0.02118000      -0.00650043       0.04925810
H        9.81473000       6.30028000      11.44674000       0.06202540      -0.05683050      -0.01198720
O        7.53895000       2.61298000      20.33198000       0.06848160      -0.04734290      -0.05954220
H        8.91090000       1.56828000      19.10765000      -0.06080110       0.03886870       0.06234960
H        7.41659000       4.05779000      19.23534000      -0.00628154       0.01119050      -0.00306625
O       20.27707000       3.94249000      23.00270000      -0.08552680       0.02335370      -0.08289120
H       19.37517000       4.86550000       0.21097000      -0.01648640       0.01844640       0.03218580
H       21.70147000       3.42808000      23.67810000       0.09948570      -0.04053050       0.05150270
O       20.41190000      13.74574000       4.95677000      -0.10609500      -0.05913520      -0.02571690
H       19.20437000      14.76224000       4.02967000       0.00549746      -0.00044325       0.00262650
H       21.71054000      14.72104000       5.32677000       0.08836920       0.05958430       0.02607070
O        8.93846000      13.93277000       9.75753000      -0.03339770       0.00228514       0.03791780
H        8.04397000      12.57037000       9.01165000       0.00571153      -0.00707538      -0.01532930
H       10.37240000      14.46867000       8.86893000       0.03498640      -0.00128378      -0.01907870
O        7.66053000      20.76350000      19.36690000       0.03282580      -0.01893460       0.06535340
H        6.58483000      19.31790000      19.36950000      -0.03215470      -0.01134180      -0.01420480
H        8.50283000      20.04990000      21.04410000      -0.00052821       0.03658640      -0.04428850
O        7.59127000       8.89617000       2.23444000       0.12659800      -0.13286500       0.05661370
H        7.46307000       6.75277000       2.37654000      -0.00942767       0.07170530      -0.02564220
H        6.19447000       9.63757000       1.79914000      -0.12107300       0.05116960      -0.03624660
O       14.47310000       8.27747000      19.49830000      -0.01443370      -0.00360906      -0.00128530
H       14.65550000       9.32367000      18.01300000       0.00325181      -0.00003195       0.00611757
H       13.54890000       6.72487000      18.90490000       0.01681720       0.01490040       0.00162392
O        3.01762000      23.56626000      21.03350000       0.06955900      -0.00817021       0.00168609
H        1.82358000      22.17716000      20.69600000       0.00899927      -0.01097390      -0.00066720
H        5.00645000      22.90146000      21.03460000      -0.08362220       0.02554820      -0.01020760
O        0.97912100      16.08970000       4.33249000       0.04425360      -0.05747000      -0.01063490
H        1.61786000      14.93570000       2.94698000      -0.01594220       0.02789790       0.02926400
H       23.75760300      17.14320000       3.59774000      -0.01518570       0.03627800      -0.02222690
O        0.78413300       2.22234000      13.23300000       0.01164450      -0.02272950      -0.01603230
H        1.44601000       0.53601000      12.69430000      -0.01237520       0.02253980       0.02025520
H        1.04862000       2.34062000      15.03740000       0.00112018       0.00082246      -0.00044245
O       13.32666000       4.06454000      17.19846000      -0.00104764      -0.00728671       0.00984829
H       14.73406000       4.64004000      16.09276000      -0.00216909      -0.01384970       0.00636425
H       14.08786000       3.00624000      18.55176000      -0.00611660       0.00880171      -0.01459230
O        4.07922000       2.08554000       5.56723000       0.04802200      -0.11227100      -0.06866150
H        3.73633000       3.21134000       6.76173000      -0.01509620       0.06344400       0.07889500
H        5.29053000       0.65574000       6.28553000      -0.03596590       0.05394740      -0.01397690
O       13.68246000      14.02517000       3.89012000      -0.04461400       0.03585040      -0.04790060
H       14.38896000      13.05957000       2.47927000       0.00159585      -0.01624410       0.00914316
H       12.06936000      14.74737000       3.04725000       0.04289390      -0.02592200       0.03349140
O       19.39610000      11.46147000      13.34560000       0.08533580      -0.03243920       0.17650100
H       20.67070000      12.81937000      13.81850000      -0.02419690      -0.02510100      -0.00373734
H       18.86160000      12.07047000      11.97250000      -0.06721060       0.05596170      -0.17022600
O        7.21363000       9.07853000       7.50787000       0.01917530       0.00069704      -0.02208450
H        7.41803000       8.78043000       5.69231000       0.02324870      -0.00531363      -0.00768702
H        5.65013000       9.87563000       7.33274000      -0.04637000       0.01509880       0.01584350
O        1.37596000       4.07339000      18.40150000      -0.02511780      -0.07228290       0.05619480
H        1.33376000       2.34188000      19.72890000       0.01623980       0.06983350      -0.05982870
H        3.13036000       4.38381000      18.23760000       0.01563580       0.00220013       0.00043948
O        1.92423000       9.98803000       8.07837000      -0.02299450       0.02846640      -0.06041470
H        2.44873000       8.52963000       8.85347000       0.01363170      -0.05476820       0.03879760
H        1.03703000       9.28073000       6.56967000       0.00991871       0.02496540       0.02221500
O       13.53490000      15.78500000       9.16357000       0.01508230       0.02094230      -0.01326460
H       15.03690000      14.65200000       9.28007000      -0.01737500      -0.00089908      -0.00954134
H       13.65420000      16.84790000       7.62237000       0.00370085      -0.02208000       0.01965870
O        1.81813000      21.01383000      13.56587000       0.07166060       0.04127700       0.13245500
H        3.41003000      20.17737000      14.05407000      -0.02848630       0.01263800      -0.01130800
H        1.29863000      20.41773000      12.12457000      -0.04325370      -0.05560830      -0.12200500
O       15.51717000       7.16604000       9.79037000       0.02660550      -0.00858772       0.06208020
H       14.91087000       5.56412000       9.28207000      -0.01400780      -0.01290300      -0.02043780
H       16.38287000       6.66833000      11.44107000      -0.01273960       0.01309380      -0.03071610
O       15.15082000      13.04036000      16.03997000       0.03769290       0.00137826      -0.00273703
H       16.58111000      12.55926000      14.85956000      -0.02085120      -0.00133431       0.01697300
H       13.57013000      12.40566000      15.46786000      -0.01557560       0.00015310      -0.01470990
O        3.51734000       5.54573000      10.31333000       0.08993730       0.02505770       0.02508470
H        5.40274000       6.02073000      11.25023000      -0.07534160      -0.02198510      -0.03649740
H        2.81204000       4.23123000      11.35303000      -0.01090660      -0.00161244       0.01105530
O       16.28220000      23.15300300       9.79504000      -0.02129380      -0.00448740       0.00486944
H       15.39530000       0.52627300       8.93488000       0.00434096       0.00188352      -0.00130739
H       14.93960000      22.22227000      10.85320000       0.02403070       0.00204695      -0.01134590
O       15.24986000      20.23129000      21.94877000      -0.07221150       0.10079900      -0.09178380
H       15.24426000      18.93183000      20.75487000      -0.00583498      -0.01131600      -0.07325940
H       16.04346000      19.28803000      22.95917000       0.10339400      -0.08380770       0.15553300
O        4.90025000      13.49003000      14.82218000      -0.04006130      -0.00698418       0.04729770
H        4.80351000      12.57013000      16.53785000      -0.01766480       0.01129840      -0.02571160
H        6.60114000      13.45493000      14.55512000       0.06163940      -0.00229149      -0.01335780
O       22.40810000      15.35100000      14.67370000      -0.02472360      -0.05057850       0.05216770
H       22.04940000      16.93510000      15.31800000      -0.02121640       0.04174750       0.03037290
H       23.19030000      15.80580000      13.25560000       0.05183170       0.00831205      -0.08521920
O        9.00789000      20.52240000      14.43128000       0.01009690      -0.00682786      -0.11396200
H        8.46432000      20.41610000      16.03148000      -0.02510010      -0.00693674       0.09123110
H        7.79993000      19.65890000      13.24943000       0.01743720       0.01375900       0.01417250
O       22.73810000       9.94164000       2.84567000       0.03212190       0.01726600      -0.01650850
H       21.53890000      11.20564000       3.27577000      -0.00662590       0.02533290       0.01134550
H       21.81930000       8.52084000       3.22827000      -0.02038700      -0.04951180       0.00728122
O       18.03105000       6.87707000       3.85146000       0.12544800       0.09341540      -0.02291550
H       17.38104000       7.91445000       2.53579000      -0.00070929       0.02406770      -0.00947521
H       16.79697000       5.86267000       3.98586000      -0.12742000      -0.11740400       0.02912840
O       15.49170000      18.00976000      17.41820000       0.03716120      -0.06466870       0.03218590
H       14.43060000      18.72336000      16.25420000      -0.03013260       0.02671890      -0.04138410
H       15.55190000      16.12906000      16.89610000      -0.00758828       0.02810930       0.01024450
O        4.16913000      16.95800000      19.55567000      -0.02917080       0.04603740      -0.04458300
H        5.01277000      15.91730000      20.62917000       0.03163110      -0.04283280       0.04662950
H        4.59979000      16.36530000      17.90417000      -0.00651465      -0.00913359      -0.00766045
O       17.24797000      17.38877000       2.13591000      -0.03970550      -0.02342140       0.02274880
H       17.61597000      18.38157000       3.67540000      -0.00870276      -0.01066270      -0.01587820
H       15.61077000      16.23927000       2.62223000       0.04639300       0.03424230      -0.00117103
O       22.65390000      11.10120000      18.19086000      -0.01034450      -0.04825100       0.04899450
H       21.43790000       9.50234000      18.38466000       0.02503640       0.04346480      -0.01461230
H       22.25240000      12.07440000      16.80136000      -0.01089650       0.02174700      -0.03165720
O       11.47143000      19.06467000       4.81563000      -0.01429680       0.02686430       0.02655070
H        9.96153000      17.98437000       4.95580000       0.00635486       0.01154660       0.00724213
H       11.24903000      20.58577000       5.98563000      -0.00185555      -0.04028290      -0.03314000
O        8.00078000      23.46516000       8.43827000       0.00768738       0.05464350       0.03772990
H        7.09370000      22.00516000       8.94767000      -0.00215485      -0.01669870       0.01119070
H        8.07145000       0.71063000      10.02857000      -0.00460836      -0.04198450      -0.04390890
O        3.09164000      11.71517000       0.44647800      -0.02927490       0.03941090       0.20178700
H        1.50092000      11.32307000       1.10142000      -0.02714670      -0.02485180      -0.01814370
H        3.82905000      11.63267000      23.01811600       0.05347950      -0.01761410      -0.18033200
O       10.15393000      11.93483000      14.40850000      -0.00390074       0.02214040      -0.02144800
H        9.85043000      10.25323000      13.87830000      -0.00159996      -0.02421470      -0.00092057
H        9.79513000      12.70743000      12.71130000       0.01293100       0.00267091       0.01930900
O       17.54885000       4.82160000      14.61840000      -0.00361259       0.06823140       0.02354800
H       18.46727000       6.04279000      15.89390000      -0.01401640      -0.05329110      -0.03743860
H       18.02821000       3.07887000      14.61670000       0.01754580      -0.00980799       0.00304449
O        3.48677000      11.20783000      19.14337000      -0.03706330      -0.06257310      -0.03591300
H        1.43177000      11.09313000      18.61252000       0.04466460       0.01170900       0.01887670
H        3.90127000       9.37623000      18.62786000       0.00007814       0.04927090       0.01636360
O       20.53400000       6.82070000      18.31257000      -0.00752586       0.01181130       0.00217122
H       20.10660000       6.19460000      19.93157000      -0.02336650      -0.01071640       0.02353190
H       22.27730000       6.48555000      18.48197000       0.03528920      -0.01770320      -0.01876850
O       15.22020000       1.58577000      21.61097000       0.05823110      -0.09226120      -0.00227179
H       17.10510000       1.89817000      21.61467000      -0.03571440       0.00847048       0.00380145
H       15.49750000      23.37260000      21.59897000      -0.02364930       0.08299340       0.00051488
O        9.44043000       9.45269000      20.91320000      -0.12198300       0.02720530      -0.01687840
H       11.05723000       9.32943000      20.72010000       0.14548000      -0.00722966      -0.02643910
H        9.20183000       8.78032000      22.50330000      -0.01940520      -0.01372130       0.04827440
