192
TotEnergy=-1103.43393000 cutoff=-1.00000000 nneightol=1.20000000 pbc="T T T" Lattice="24.39735000       0.00000000       0.00000000      -0.00000100      24.39735000       0.00000000      -0.00000100      -0.00000100      24.39735000" Properties=species:S:1:pos:R:3:force:R:3:Z:I:1
O              24.03120000     -4.97596000    -28.46200000     -0.04262210     -0.01006670      0.01063440       8
H              22.10530000     -4.83608000    -28.91990000      0.06921200     -0.01971080      0.02433220       1
H              24.54420000     -6.53172000    -27.39450000     -0.02771330      0.03388140     -0.03093410       1
O              50.79890000     47.40900000      4.29263000     -0.05568730      0.09159690     -0.06838130       8
H              51.42740000     46.24140000      5.25950000      0.05765330     -0.09436810      0.06809000       1
H              51.00330000     47.01700000      2.49070000     -0.00134977      0.00321275      0.00823475       1
O              10.38080000      1.81750000     10.57400000     -0.00715665     -0.05976360     -0.02263370       8
H              11.40760000      2.60415000     11.76330000      0.02113690      0.02135740      0.02092910       1
H              10.81000000     -0.10298600     10.78400000     -0.01897050      0.04679700      0.00369995       1
O              -5.52690000     -9.91366000      0.91028700     -0.04655730      0.03921660      0.03802080       8
H              -4.97169000     -9.52197000     -0.71165200      0.02948270     -0.01384190     -0.04149120       1
H              -6.67671000     -8.38048000      1.08122000      0.01488080     -0.02915080      0.01706170       1
O               8.36377000     30.14240000     20.10610000     -0.02423710      0.00992163      0.08064540       8
H               9.18980000     31.33960000     21.28400000     -0.01353800     -0.01155030     -0.01704560       1
H               9.15859000     30.32390000     18.60490000      0.03600470      0.00306874     -0.05910920       1
O              -3.55617000     11.38100000     12.60580000     -0.05120390     -0.03943250      0.03433480       8
H              -4.54944000     10.44880000     11.36630000     -0.00310457     -0.00067880     -0.00129392       1
H              -2.51202000     12.35240000     11.66130000      0.04821380      0.04462080     -0.03629890       1
O              46.09010000     24.87790000     12.59390000      0.00535547     -0.00631039      0.04615280       8
H              47.72510000     25.59130000     13.13620000     -0.01233000     -0.00192171     -0.01087050       1
H              45.83930000     24.89560000     10.84090000      0.00831178      0.00133562     -0.03733600       1
O               1.11539000    -28.66230000     11.30390000     -0.04723890      0.08378830     -0.01090300       8
H               0.86044000    -30.33360000     10.78200000     -0.01835970     -0.02817620     -0.01314390       1
H              -0.45413700    -27.49580000     10.71550000      0.05738500     -0.05183110      0.02246330       1
O              30.35430000    -34.44490000     18.90200000     -0.01273020      0.01949230     -0.02259120       8
H              31.35220000    -33.14290000     18.10210000     -0.01097070      0.00516539     -0.00724219       1
H              31.59810000    -35.12890000     19.93490000      0.02132310     -0.02784940      0.02892420       1
O               8.84396000    -27.49320000    -27.99170000     -0.06181590     -0.02017930      0.01220530       8
H              10.65910000    -27.56620000    -27.72060000      0.00408724      0.00864778      0.01837500       1
H               7.87037000    -28.41990000    -26.64470000      0.02683240      0.01159300     -0.02030430       1
O             -11.00690000      2.77554000      6.11230000      0.00019442      0.03214650     -0.06128270       8
H             -12.07710000      2.73714000      7.47045000     -0.02620370     -0.01111380      0.06957490       1
H             -12.23570000      3.66130000      5.02567000      0.02196840     -0.01546350     -0.00690848       1
O             -11.87520000     29.70970000     49.88820000      0.03554010      0.09182850      0.07200230       8
H             -13.09900000     28.62310000     49.66410000     -0.09998290     -0.07873630      0.00092173       1
H             -10.92800000     29.34770000     48.54070000      0.06642870     -0.00589291     -0.07325220       1
O              14.75190000    -28.51300000    -14.95830000      0.14251800     -0.09474670     -0.06903910       8
H              15.19190000    -30.63330000    -15.35240000     -0.03090650      0.07912250      0.01608960       1
H              13.39180000    -27.99430000    -14.14470000     -0.10277300      0.00693427      0.05195690       1
O              24.36650000     14.91870000     34.77630000     -0.00210899      0.01697830      0.03802310       8
H              25.02550000     14.26120000     33.27000000      0.01270680     -0.01206230     -0.03607350       1
H              25.79170000     14.88610000     35.94750000     -0.00882562     -0.00621471     -0.00147644       1
O               0.81569500      4.10116000      0.55127200     -0.06675620     -0.00201363     -0.12478200       8
H               1.44156000      4.17592000      2.07956000      0.05361440     -0.00046027      0.10635700       1
H               0.93753800      2.42315000     -0.22951600      0.00465700     -0.00441088      0.02797380       1
O             -27.11730000     23.81850000     31.89970000      0.06432560     -0.01444590     -0.03003130       8
H             -25.28470000     23.40090000     31.01600000     -0.08325330      0.02005060      0.01929470       1
H             -28.51490000     23.86440000     30.67100000      0.01479490     -0.00613106      0.00574964       1
O             -32.93710000     10.16560000     25.48370000      0.04136140      0.06096100      0.06210920       8
H             -33.02730000      9.70476000     23.83530000     -0.00712540     -0.02208830     -0.06396170       1
H             -31.61720000     11.66040000     25.44090000     -0.03288370     -0.03561900     -0.00022960       1
O             -17.14590000     62.95730000    -19.61100000      0.00620664     -0.00125922      0.00261597       8
H             -17.36570000     63.39470000    -17.73420000      0.01155710     -0.03038940     -0.03369290       1
H             -17.10910000     61.16260000    -20.22080000     -0.01034440      0.03192550      0.03428110       1
O              66.40060000     20.93730000     38.49530000     -0.03100860     -0.01174790     -0.03099940       8
H              67.46750000     22.30890000     38.20650000      0.03049290      0.02672510      0.00224055       1
H              65.43680000     20.94220000     36.84130000      0.00882114     -0.01217290      0.02065320       1
O              57.60220000    -22.27520000      2.54761000      0.00265361     -0.03294850     -0.05932680       8
H              56.29020000    -21.65990000      3.52936000     -0.03493390      0.01988870      0.03381400       1
H              56.57950000    -22.81000000      1.01611000      0.02273040      0.00834982      0.02531060       1
O              30.51940000     20.36940000    -15.32150000     -0.02470950      0.00631212      0.00567849       8
H              31.09400000     18.72070000    -14.76250000     -0.00356859     -0.00451628     -0.00040819       1
H              28.88920000     20.73710000    -14.45170000      0.02489650     -0.00904487     -0.01140220       1
O             -11.31160000      6.38388000     60.08580000      0.00999831      0.03649510     -0.00075817       8
H             -12.38560000      7.83705000     59.67450000     -0.00906460     -0.02660160     -0.00157398       1
H              -9.70093000      7.16098000     59.62470000     -0.00020885     -0.01453400      0.00091709       1
O               5.94302000      1.42821000     -2.39016000      0.03455350     -0.02789230     -0.00125513       8
H               7.21025000      0.06537500     -2.86855000     -0.02318930      0.02032590      0.00230192       1
H               6.76170000      2.99763000     -2.86785000     -0.00300099      0.00431732     -0.00817081       1
O              44.35470000      5.01890000     23.85030000      0.01082070     -0.01161350      0.05191830       8
H              43.47040000      4.91301000     25.52270000      0.00493193      0.00879094     -0.02368510       1
H              46.11020000      4.71665000     24.49260000     -0.01348300      0.00157931     -0.01785620       1
O              -3.90412000     62.31680000     30.44650000     -0.07457030     -0.08796890     -0.03196550       8
H              -4.32993000     62.17260000     28.61730000      0.01654070      0.01836080      0.02600430       1
H              -2.82476000     63.54910000     30.81960000      0.06182300      0.06799010      0.00346857       1
O               7.68851000     39.61230000      9.99997000     -0.07152470      0.00638743      0.01881850       8
H               6.29414000     38.84400000     11.35580000      0.04912080      0.01266010     -0.03552550       1
H               9.24678000     38.79290000     10.09190000      0.02475850     -0.01731930      0.01107260       1
O             -16.27940000     19.65590000     16.15320000      0.18542900     -0.04683370      0.04155960       8
H             -17.79970000     19.95430000     15.80900000     -0.18546200      0.03974980     -0.03900570       1
H             -16.05530000     19.89960000     17.99330000      0.00155795      0.01326500     -0.00989860       1
O              33.80760000     33.01250000     52.53460000      0.06137650     -0.01642040     -0.03886080       8
H              35.30220000     32.32480000     51.29470000     -0.05644160      0.01841150      0.04165900       1
H              32.24730000     32.32660000     51.92200000     -0.00274201      0.00021815     -0.00089684       1
O              14.52440000     34.19130000     19.57310000      0.04810390     -0.17482100      0.13087800       8
H              14.38810000     35.68500000     19.07570000     -0.02510880      0.18053100     -0.09902010       1
H              13.98900000     32.61970000     18.94540000     -0.02072820     -0.01398320     -0.03293770       1
O               1.83625000    -25.06230000     23.73700000     -0.05147430     -0.03886880     -0.04033410       8
H               0.63976500    -26.24400000     22.62000000      0.04984480      0.03853430      0.03273070       1
H               3.22540000    -24.34230000     22.73310000      0.00095534     -0.00907687     -0.00203023       1
O               1.58849000     14.17610000      5.51071000     -0.08574460     -0.09638580     -0.02796420       8
H               1.81786000     12.55760000      4.34896000      0.01727060      0.06576210      0.03901540       1
H               2.89316000     15.24130000      5.68216000      0.07272460      0.03376460     -0.01138150       1
O               1.82051000      2.44763000     14.73370000     -0.00882777      0.04844960     -0.07292110       8
H               2.06304000      1.19821000     15.83060000      0.02056320     -0.07525220      0.05952080       1
H               1.41499000      3.86903000     15.70560000     -0.01083580      0.02471060      0.01463060       1
O             -35.49980000     54.06650000    -31.68570000      0.03580510     -0.01234500      0.03764770       8
H             -34.80960000     54.65510000    -33.24270000      0.00362614     -0.00284421     -0.01307390       1
H             -34.03990000     53.28230000    -30.65150000     -0.03938260      0.01603680     -0.02610720       1
O               4.12339000     52.28370000    -19.62550000     -0.03931590     -0.01805450      0.05918320       8
H               3.83013000     52.76080000    -17.76880000      0.01851730     -0.00411306     -0.04493730       1
H               3.12491000     50.64790000    -19.54390000      0.02444990      0.01865850     -0.01205300       1
O             -35.64790000     38.43490000      3.47269000     -0.03723490      0.00981782      0.03616520       8
H             -35.18640000     37.15790000      2.34558000      0.01489090     -0.02727510     -0.02036480       1
H             -37.25250000     37.80210000      4.22388000      0.01937050      0.01550200     -0.00892485       1
O              22.95070000     31.63760000     15.06530000      0.00186647     -0.02054100      0.06588890       8
H              22.38440000     31.93890000     16.88920000      0.01296320     -0.01451010     -0.04153630       1
H              22.26060000     33.04790000     14.26680000     -0.01069490      0.03835370     -0.02342850       1
O             -15.32360000    -15.24930000      9.01053000      0.09072200     -0.02042400     -0.06285400       8
H             -15.01900000    -15.53380000      7.05515000     -0.01038180      0.00777952      0.05488450       1
H             -16.99170000    -14.96770000      9.16786000     -0.07650900      0.01402020      0.00645105       1
O             -48.15300000      5.21559000     19.80340000     -0.08595770     -0.12272200      0.03778310       8
H             -47.87540000      4.32588000     21.46390000      0.00665011      0.03478400     -0.04010600       1
H             -47.14640000      6.49115000     19.55750000      0.08440660      0.09214340     -0.00618029       1
O             -20.51350000    -15.26470000     34.68640000     -0.03838810     -0.04477100     -0.01283960       8
H             -20.12850000    -17.11910000     35.13020000      0.00102148      0.02964190     -0.00408941       1
H             -22.11270000    -15.55260000     33.67520000      0.02770510      0.01348910      0.01451340       1
O              15.86230000     15.13080000     32.44170000      0.02457810     -0.03653720     -0.04550480       8
H              17.62270000     14.42420000     32.16090000     -0.01582860      0.01808800      0.01791810       1
H              15.35830000     14.51880000     30.66780000     -0.01553470      0.02319780      0.03458460       1
O             -21.46570000     -2.97632000     40.48660000     -0.02839370     -0.00267462      0.00391727       8
H             -22.68880000     -3.21235000     41.88990000      0.01964680     -0.00465376     -0.02053650       1
H             -22.37150000     -3.49880000     38.92380000      0.01013590      0.00501947      0.01785050       1
O              42.48870000      8.07341000     33.82750000     -0.00831370      0.01303400     -0.05271850       8
H              42.34000000      7.36982000     31.94110000      0.00647902      0.00734252      0.06101830       1
H              42.69400000      6.85413000     35.19570000      0.00440332     -0.02110660     -0.01411580       1
O             -10.24860000    -35.07730000     -7.46088000     -0.00199131     -0.02399580     -0.06417800       8
H              -8.71474000    -34.12220000     -7.89084000     -0.00717629     -0.00287638      0.00572855       1
H             -10.53660000    -36.10790000     -9.19344000      0.00320256      0.04278780      0.05363910       1
O              53.79750000    -20.39730000    -13.81170000      0.06418910     -0.02059900      0.06725450       8
H              55.78550000    -20.73040000    -13.58880000     -0.05946280      0.00902812     -0.02285120       1
H              53.35170000    -20.98900000    -12.00700000     -0.00750658      0.01111330     -0.04695510       1
O              16.41200000     -1.28232000      5.24500000     -0.02618100     -0.01541370      0.05600860       8
H              15.24520000      0.14328700      5.43800000      0.00866288      0.00018883     -0.01359820       1
H              15.81100000     -2.15476000      6.93496000      0.02175830      0.00768548     -0.04534020       1
O             -35.53830000     -2.34891000     46.36470000      0.01938400     -0.00371273     -0.02212040       8
H             -34.98700000     -3.24044000     44.74800000      0.00162460      0.01792550      0.01302240       1
H             -35.19930000     -3.57339000     47.62590000      0.00768142     -0.00832974      0.01926870       1
O               4.31804000    -11.08290000    -11.44080000     -0.05041140     -0.02523750     -0.08309620       8
H               4.71023000    -11.71070000     -9.90321000      0.02042740     -0.01654930      0.07136760       1
H               3.58688000    -12.77250000    -12.36640000      0.03142750      0.03790270      0.01706830       1
O              18.54420000     16.02280000     15.93590000     -0.00087435     -0.12688000      0.03217910       8
H              18.60790000     17.62810000     15.47230000      0.00649099      0.09388000     -0.04815360       1
H              18.98710000     14.69060000     14.68650000      0.00253705      0.03189420      0.01036910       1
O              10.28050000     21.19090000    -12.69340000      0.21957100     -0.03109490      0.23256600       8
H               9.80531000     20.73660000    -10.63590000      0.00012137      0.01307000     -0.07447900       1
H               9.09206000     21.34870000    -13.64380000     -0.21984200      0.01791070     -0.14895600       1
O              23.93980000     57.37900000     31.02830000     -0.02502650     -0.01125580      0.00706015       8
H              22.86330000     58.90820000     30.80280000      0.00745694     -0.02762830      0.00708982       1
H              22.85580000     55.85470000     31.38780000      0.01643650      0.04164480     -0.00882886       1
O              -6.97354000      6.10429000      4.59299000     -0.08959740      0.01986490     -0.00234193       8
H              -7.63375000      7.64261000      3.66573000      0.02291370     -0.02048740      0.00608172       1
H              -8.85471000      5.46185000      5.05408000      0.06893980      0.00040386     -0.00764263       1
O              14.22230000    -28.61550000     17.64180000     -0.03965030     -0.03753480      0.02949070       8
H              13.77160000    -30.40220000     17.33230000      0.01293650      0.02801440     -0.00538043       1
H              15.44970000    -27.94920000     16.55020000      0.02296560     -0.00000412     -0.02871690       1
O               1.17944000     13.96130000     46.08240000      0.06580450      0.02721520     -0.00714991       8
H              -0.43534700     13.68400000     45.29790000     -0.00121660      0.00819960     -0.01935950       1
H               2.79010000     14.56110000     45.01960000     -0.06204390     -0.02813560      0.02240390       1
O              39.66410000     43.11630000      2.00740000      0.01333300      0.03832370     -0.01266740       8
H              39.36420000     44.72230000      2.87328000      0.02323290      0.00638996     -0.00518521       1
H              38.41650000     42.26650000      2.87708000     -0.03309660     -0.04270590      0.01482520       1
O              20.61090000     13.66740000    -28.19870000     -0.00978705     -0.02257060      0.00038569       8
H              20.02970000     11.85820000    -28.47490000      0.01453210      0.02726430      0.00731132       1
H              19.63140000     14.75190000    -29.26150000     -0.00014276     -0.00140079     -0.01385290       1
O             -17.68500000     42.95790000      1.13038000     -0.01068750      0.02280480     -0.02735650       8
H             -17.49780000     41.35760000      1.82257000     -0.00532676     -0.04394120      0.01398140       1
H             -16.42070000     43.79120000      2.06477000      0.01703350      0.02381950      0.01613190       1
O               9.98952000    -27.30360000     29.15890000     -0.00731093      0.01567280     -0.00478352       8
H               9.14356000    -27.70440000     30.74740000      0.00147755      0.01165470     -0.01676330       1
H               9.56065000    -25.54660000     28.59460000      0.00486052     -0.02798640      0.01649390       1
O               4.21933000     34.02020000      3.76336000     -0.01728990     -0.00924171      0.00213446       8
H               2.93110000     33.34500000      4.88418000      0.00985636      0.00028437      0.00015357       1
H               3.51575000     33.50210000      2.14493000      0.00014402      0.00557205     -0.00745615       1
O             -11.57730000    -11.92260000     11.69990000      0.10810400      0.20275600     -0.00653327       8
H             -12.27470000    -13.34320000     11.79140000     -0.07101680     -0.16701500     -0.01396960       1
H             -10.24070000    -11.37460000     10.41100000     -0.03583450     -0.02852240      0.02180190       1
O              -5.42979000      4.81759000     12.92960000      0.05431330     -0.04387350      0.02649300       8
H              -3.63055000      5.38893000     13.53730000     -0.04799810     -0.00805704     -0.00819198       1
H              -5.10240000      2.87494000     13.00730000     -0.00949528      0.05423290     -0.00671618       1
O              25.94480000    -15.13080000     -0.65500400     -0.04194900     -0.07227250     -0.01929580       8
H              25.73200000    -13.52330000     -1.50180000     -0.00452130      0.00146968     -0.00579533       1
H              24.75620000    -16.64900000     -1.40574000      0.05068030      0.07478650      0.03027200       1
O              19.77940000      8.66003000     44.53070000      0.05119590      0.03986870     -0.03984150       8
H              19.74570000      7.55690000     45.85980000     -0.00211558     -0.03964910      0.04760060       1
H              18.16580000      8.92860000     43.94390000     -0.05119350     -0.00063621     -0.01337970       1
O              15.66170000     28.06310000     45.86010000      0.05523740     -0.03656490      0.04264970       8
H              17.44040000     28.00350000     46.72980000     -0.03392930      0.02515890     -0.03059160       1
H              15.37860000     26.31440000     46.41000000     -0.02154170      0.00596426     -0.01701360       1
O             -14.17030000     10.65250000     22.35900000      0.06028780      0.04204110      0.01192700       8
H             -12.35490000     10.60560000     21.38590000     -0.06044510     -0.00133492      0.03685860       1
H             -13.95430000     11.94800000     23.81380000     -0.00541960     -0.04339780     -0.04590230       1
