192
Lattice="23.46114 0.0 0.0 0.0 23.46114 0.0 0.0 0.0 23.46114" Properties=species:S:1:pos:R:3:force:R:3 TotEnergy=-1103.84142 cutoff=-1.0 nneightol=1.2 pbc="T T T"
O        3.86615000      11.91800000       3.88935000      -0.01114880      -0.00253223       0.01219360
H        4.80107000      12.21430000       2.37976000       0.01000230       0.00105056      -0.00366351
H        2.09637000      12.22060000       3.44243000       0.00831035      -0.00062479      -0.00095824
O       22.08520000      21.71690000      14.40290000      -0.00096634      -0.00173727      -0.00502851
H       22.50180000      22.40330000      12.76480000       0.00100374      -0.00403601       0.00243054
H       21.34200000      23.08144300      15.33600000      -0.00287296       0.00615245       0.00503421
O        8.65298000      15.68420000      14.07990000      -0.01521120       0.01382270      -0.01299800
H        9.80794000      14.68290000      15.01510000       0.00762845      -0.00460824       0.02077020
H        7.44296000      16.43870000      15.22590000       0.00550023      -0.01129050      -0.00699738
O       18.69400000       4.74702000       8.26131000      -0.00462565      -0.00870942       0.00413315
H       18.79280000       2.91012000       8.18278000      -0.00294733       0.00866675      -0.00420482
H       18.31910000       4.98819000      10.04630000      -0.00150691      -0.00277504       0.00200713
O       10.99690000      19.53560000      19.47170000      -0.00510774      -0.00612279      -0.00106940
H       10.81410000      17.81710000      18.83620000       0.00632305       0.00720229       0.00171565
H        9.59414000      19.62620000      20.66500000       0.00525922       0.00266421      -0.00368952
O        2.81503000       3.45338000      17.00980000       0.00211470       0.00535114      -0.00780074
H        4.04002000       3.45962000      15.64480000       0.00120944       0.00525652       0.00170659
H        3.35613000       1.97934000      18.01420000      -0.00487317       0.00271994      -0.00504505
O        8.26278000       3.78934000      21.92050000      -0.00724227       0.00838733      -0.03157670
H        8.68926000       3.49839000      20.11840000      -0.00929501       0.01024100       0.01487020
H        9.02884000       2.33139000      22.59840000       0.00906581      -0.00695179       0.01871610
O        3.42200000      12.70760000      15.91160000      -0.00192629       0.00027133      -0.00298388
H        4.07433000      12.22870000      14.25170000      -0.00075060      -0.00021722       0.00497115
H        3.35420000      11.09260000      16.77390000       0.00349792      -0.00283269       0.00268551
O        7.92579000      17.75320000      22.93600000       0.02139550       0.01237500      -0.01567530
H        6.51866000      17.23050000       0.41256000      -0.02369000      -0.00676618       0.00978910
H        8.85389000      16.23140000      22.56350000      -0.00690432       0.00077888       0.00745612
O       21.12400000      15.65670000       7.81624000      -0.01047980       0.00029918      -0.00106810
H       22.93550000      15.75540000       7.89643000       0.00692429       0.00003528      -0.00350496
H       20.73200000      13.91720000       8.11114000       0.00620036      -0.00478722       0.00461818
O       15.00570000      16.08740000       9.52091000      -0.02736570      -0.01360220      -0.03488490
H       16.17940000      16.34550000      10.78420000       0.02533350       0.00995273       0.03447090
H       13.34850000      16.72840000      10.05450000       0.00724778       0.00039325      -0.00123377
O        3.32561000      16.36880000      12.09990000       0.00943889       0.00345119      -0.00301841
H        2.14020000      15.14150000      12.65710000      -0.00501897      -0.00472268      -0.00304337
H        3.74414000      15.92740000      10.35460000      -0.00862347       0.00512821       0.00842940
O       19.29670000      22.67320000       3.94458000       0.00642797       0.01153610      -0.00411295
H       20.33600000       0.55145300       3.21103000      -0.00156370      -0.00271409       0.00179130
H       20.31310000      21.82870000       5.21588000      -0.01065320       0.00076831       0.00548102
O       23.14370000      12.91150000       1.49988000       0.00260591      -0.00372760      -0.00587472
H       21.33870000      13.00480000       1.68819000      -0.00973540       0.00114950       0.00388705
H       23.43960000      11.79730000       0.07815400      -0.00868273       0.00105743      -0.00338263
O        8.42222000       2.36079000      16.94330000      -0.00001378       0.00440755       0.00208410
H        7.21664000       1.05955000      17.36100000      -0.00026746      -0.00269437       0.00385844
H        9.25487000       1.83683000      15.44180000       0.00560910      -0.00159625      -0.00736932
O       15.13110000       7.17214000       5.63948000      -0.00936003      -0.00140014       0.02486990
H       16.22730000       6.10491000       6.78221000       0.00989435       0.00854950      -0.00981933
H       14.11280000       8.44220000       6.62631000       0.01866460       0.00236322      -0.00742507
O       22.82700000       2.42601000       1.66720000       0.00166216       0.00076586      -0.00005016
H       22.65500000       3.44400000       0.16436600      -0.00023636      -0.00411253       0.00244306
H        0.28226000       3.51404000       2.79741000      -0.00517407       0.00321940       0.00001452
O       12.70940000       1.89183000       0.48462400      -0.00555739      -0.01474130      -0.01513580
H       11.90130000       0.33225500       0.95810300       0.00938106       0.00425541       0.00276908
H       13.54810000       1.39964000      22.35070000       0.00164306       0.00557889       0.02142480
O        1.70712000      22.65560000       9.22714000      -0.00156882      -0.01137080       0.00235183
H        3.05605000      22.24290000      10.36650000       0.00165909      -0.00051419      -0.00558432
H        1.37390000       0.95329700       9.34168000       0.00582788       0.01579040      -0.00053436
O       10.55240000       8.95866000      22.24050000       0.00888138       0.00158070       0.00461927
H       10.03060000       7.30439000      22.84940000      -0.00459085       0.00390828      -0.00714599
H       12.32190000       8.93923000      22.80400000       0.00591682      -0.00824097      -0.00238847
O       22.10930000       9.79555000      20.61600000      -0.01925340       0.01508490       0.00906261
H       23.41584100       8.77196000      19.94030000       0.01398270      -0.01036220      -0.00675920
H       20.45820000       9.05015000      20.18700000       0.00550653      -0.00720153       0.00517866
O       15.02620000      13.51060000      21.69570000       0.00365661       0.00183519       0.01125430
H       16.23750000      14.55450000      20.81240000       0.00165327       0.00304343      -0.00530806
H       15.88550000      13.11410000      23.24480000      -0.00105194      -0.00885893      -0.00424507
O       20.63120000       9.39920000      13.16130000      -0.00505098       0.00463984       0.00423501
H       21.45020000       7.89029000      13.73750000      -0.00168294      -0.00901616       0.00519154
H       20.91090000      10.57630000      14.55420000      -0.00042756       0.00897197      -0.00105217
O       19.33160000       2.12387000      18.23870000      -0.00140644       0.00012249       0.00385916
H       19.09970000       3.93794000      18.35100000       0.00108416      -0.00065074       0.00462286
H       18.04810000       1.49299000      19.38810000       0.00381161      -0.00452982      -0.00857702
O       10.68810000      18.40770000      10.34960000       0.00224411       0.00642026       0.00725820
H        9.74376000      17.79120000      11.83190000       0.00350648      -0.00209803      -0.00492585
H       11.69210000      19.76060000      11.04860000      -0.00575234      -0.00050817       0.00124272
O        5.46351000       6.61068000       5.32740000      -0.01148350       0.01919830       0.01181090
H        4.64127000       8.26188000       5.62914000       0.01215500      -0.01344840      -0.00902770
H        7.17042000       6.85674000       5.90896000       0.00017408      -0.00379693      -0.00458732
O        8.25066000      12.90380000       9.40746000       0.00291963       0.00196588      -0.00185316
H        8.49637000      13.40940000      11.13310000       0.00059730       0.00596652       0.00377398
H        9.30113000      14.02650000       8.45710000      -0.00152249       0.00037388      -0.00228724
O        3.35333000       6.13373000       0.03756000       0.00090180       0.00066256       0.00104936
H        3.18045000       6.86122000       1.67703000       0.00330423       0.00173865       0.00391788
H        5.02561000       5.41082000       0.07516000       0.00070467      -0.00340078      -0.00348945
O       22.60100000       7.29846000       4.56289000       0.00272410      -0.01320800      -0.00171489
H       21.65480000       8.14331000       5.85903000       0.00049682       0.00622208       0.00304833
H       23.13477000       8.58976000       3.42867000      -0.00209826       0.00635596      -0.00137694
O       11.98190000      21.39800000      14.65380000       0.00739380       0.00381128      -0.01421030
H       11.48840000      21.37230000      16.39170000      -0.00535879      -0.00486661       0.00975600
H       13.65290000      20.66700000      14.64560000       0.00271506       0.00265593       0.00196495
O        4.71010000      23.02770000      19.23820000      -0.00558519      -0.00477900      -0.00020884
H        4.02398000      23.38200000      20.91940000       0.00599957      -0.01458850       0.00026080
H        3.86202000      21.52980000      18.59150000       0.00247298      -0.00031805       0.00644231
O        3.10456000      16.49230000       7.03783000       0.00095579       0.00505440      -0.00415526
H        3.44589000      15.32530000       5.68251000       0.00770740      -0.00082732       0.00267846
H        4.40779000      17.81760000       7.06814000      -0.00714908      -0.00806707       0.00036481
O        9.23988000       8.74454000      16.85700000       0.00073347      -0.00511472      -0.00148397
H        8.16251000       7.31453000      17.21110000       0.00294127       0.00435913      -0.00280277
H       10.10250000       9.05612000      18.43480000      -0.00215563      -0.00689367       0.00286850
O       19.17110000      19.73700000      23.45130000      -0.00387749      -0.01212880      -0.00677714
H       19.23720000      20.78910000       1.50987000       0.00176070       0.00366544       0.00347727
H       18.51710000      18.15670000       0.60743100       0.00143044      -0.00052873      -0.00084220
O       17.30590000      19.29660000      13.85300000       0.00259593      -0.00247903      -0.00817772
H       17.77340000      18.18900000      15.22650000      -0.00618281       0.00256199      -0.00116752
H       18.89090000      20.09240000      13.35260000      -0.00576510       0.00053232       0.00645651
O       18.22670000      13.94470000       3.29261000      -0.00717614       0.00781815       0.00276944
H       16.54360000      14.72450000       3.09605000       0.01066130       0.00257532       0.00638516
H       18.92220000      14.79270000       4.76667000      -0.00085992      -0.00188423      -0.00555838
O       14.11470000      21.23810000       3.94543000      -0.00618143       0.03025740       0.01143650
H       14.08620000      20.86270000       5.70661000      -0.00219550      -0.00186193       0.01033910
H       15.34750000      22.57010000       3.83912000       0.00723555      -0.00071867      -0.00574449
O       15.83690000      10.19710000      15.69320000      -0.00689446      -0.00585198      -0.00178053
H       14.19810000       9.47878000      15.34210000       0.00525904       0.00325331       0.00046200
H       16.99770000       9.20594000      14.68670000      -0.00041811       0.00712085      -0.00297460
O        4.48231000      10.52330000      11.28910000       0.00744837      -0.00492475      -0.00772988
H        5.38509000      11.80940000      10.31590000      -0.00717430      -0.00332213      -0.00175099
H        5.71978000       9.17352000      11.22900000      -0.01000920       0.00020118       0.00732633
O        8.77384000      13.09100000       1.42124000      -0.01003060      -0.01224060      -0.02312200
H        9.86634000      13.96610000       2.50596000       0.01628710       0.00884366       0.01520460
H        9.76817000      11.94060000       0.36540900      -0.00733492      -0.00347850       0.01193920
O       15.01910000      22.72990000       9.87312000      -0.01188070      -0.00623736      -0.00779576
H       15.59460000      21.02040000      10.15600000       0.00398711       0.01026840       0.00577821
H       14.84460000       0.10964000      11.47990000       0.01241220      -0.00521907       0.00075214
O       17.88850000      16.55930000      18.51450000      -0.01527150      -0.03105460      -0.01599940
H       19.23150000      15.57960000      17.72750000       0.00557812       0.00512240       0.00688378
H       18.44810000      18.10000000      19.16690000       0.01896410       0.02187130       0.01172550
O       21.78480000      13.01940000      16.71960000       0.00250564       0.00110927       0.00517800
H       21.86370000      12.25570000      18.41250000      -0.00338504      -0.00335012      -0.00640348
H        0.12303800      12.99170000      16.26300000      -0.00258734       0.00697097      -0.00219928
O       11.23360000      14.07630000      18.22250000       0.00430144       0.01044500      -0.00846823
H       10.61980000      12.78250000      19.28820000      -0.00948666      -0.00997286       0.00855301
H       13.01850000      13.98790000      18.52700000       0.00253386       0.00016546      -0.00062285
O        3.35312000       8.36388000      18.65750000      -0.00065138      -0.00760569      -0.00201284
H        3.30497000       6.50699000      18.56970000      -0.00079404       0.00654122      -0.00552941
H        4.55443000       8.77040000      19.93880000      -0.00000830      -0.00235437       0.00655526
O       22.13120000       4.47031000      13.80270000       0.00991119       0.01232060      -0.02060220
H       22.79510000       5.28321000      12.28570000      -0.00431799      -0.01530850       0.00728280
H        0.17686000       3.93043000      14.67650000       0.00227422      -0.00336729       0.01431370
O       17.78500000       7.02053000      19.53260000       0.00277191      -0.00424091       0.00930863
H       16.81410000       6.75329000      21.14460000      -0.00096358       0.00388062      -0.00076827
H       16.68190000       7.79867000      18.31370000      -0.00179935       0.00622861       0.00544196
O        1.98988000       4.53362000       8.57114000      -0.00442148       0.00262345      -0.01191000
H        0.54802800       5.24418000       7.70527000       0.00082602      -0.00030574       0.00186241
H        3.36332000       4.90703000       7.37017000      -0.00325017      -0.00075682       0.00473599
O       13.65680000      10.90670000       8.95838000       0.00465472      -0.00177366      -0.00099355
H       14.18940000      12.67040000       9.09496000       0.00179064      -0.00152549      -0.00525122
H       13.90280000      10.23080000      10.61870000      -0.00282901      -0.00455523       0.00181984
O       15.74410000      22.47480000      20.93450000      -0.00533846       0.00303902      -0.00974770
H       16.86480000      21.34670000      21.86710000       0.00039302      -0.00094465       0.00211349
H       14.42270000      21.47490000      20.18890000       0.00091059      -0.00470006       0.00044712
O       15.16880000       6.80301000       0.64724700       0.00397820       0.01489020       0.01491490
H       15.84800000       7.64622000       3.90566000      -0.01415830      -0.01153200      -0.02062840
H       14.16000000       5.39125000       1.21033000       0.00575099       0.00369618      -0.00898767
O       12.80500000       6.42576000      12.86170000       0.00614378      -0.00283923      -0.00568978
H       12.35680000       4.80202000      12.12930000      -0.00619982       0.00263494      -0.00469404
H       11.36690000       6.82726000      13.86750000      -0.01069830       0.00631624       0.00973235
O        2.14053000      18.31160000      17.55610000       0.02291050      -0.01577290       0.01259560
H        2.65262000      16.95180000      16.43890000      -0.00045429       0.00743096       0.00604503
H        0.75144700      19.07800000      16.76610000      -0.02028750       0.01322530      -0.01642910
O       16.89350000       3.46049000      13.27000000       0.00252932       0.01121500       0.00426171
H       15.53230000       4.59902000      13.78970000       0.01240440      -0.00567852       0.00012833
H       18.33640000       3.73933000      14.38750000      -0.01326760      -0.00783657      -0.00745874
O        6.49135000      20.37300000       8.03387000      -0.00009030       0.00817980      -0.00053912
H        6.54724000      21.33570000       6.49245000       0.00055584       0.00277736      -0.00014830
H        8.20752000      20.48020000       8.63915000      -0.00338544      -0.01328840       0.00197400
O       20.55490000      20.67830000       8.55069000      -0.01585630       0.00311120       0.00058078
H       22.30240000      20.87480000       8.20334000       0.02126170       0.00547591       0.00796687
H       20.43700000      18.91990000       8.98885000      -0.00468699      -0.00588225      -0.00555512
O        7.87635000      22.78150000       3.52832000      -0.00474737       0.00150372      -0.00394595
H        9.22839000      21.90640000       2.71843000       0.00159567      -0.01006120       0.00142615
H        6.35445000      22.24900000       2.63780000      -0.00023730       0.00596506      -0.00486503
O       10.38150000       2.44957000      10.58200000       0.00188059      -0.00065959       0.00553574
H       10.39670000       2.99939000       8.82925000      -0.00280386      -0.00023397      -0.00609439
H       11.13240000       0.80200800      10.58570000      -0.00050337      -0.00281234       0.00047550
O       13.95510000      16.98520000       2.62984000      -0.00366674      -0.07803880      -0.00804211
H       14.21700000      18.75260000       2.90766000      -0.00252984       0.02069340      -0.01651330
H       13.37790000      16.30350000       1.02960000       0.00566990       0.02359520       0.00552581
O       22.67810000      10.54200000       8.70121000      -0.00444263      -0.00265869      -0.00040158
H       21.95640000      10.31180000      10.37920000      -0.00537880      -0.00108072       0.00177176
H        0.88771100       9.89895000       8.94314000       0.00981162       0.00448369      -0.00140198
O        2.20026000      17.37800000       0.01396000      -0.00971390      -0.01394070       0.01847050
H        2.09684000      16.90910000      21.74710000      -0.00127434       0.00030001      -0.01601650
H        1.01567000      16.24490000       0.88339200       0.01008020       0.00633049      -0.00860184
O       10.30520000       3.81995000       5.65581000      -0.00386865      -0.00234326       0.00982745
H       12.10040000       3.58608000       5.63225000      -0.00048227      -0.00054493      -0.01256820
H        9.51199000       2.38217000       4.83289000       0.00366928       0.00370089      -0.00171455
O        3.06422000      22.14650000       0.63937600      -0.00197664       0.00341663       0.00560747
H        2.08729000      20.58870000       0.36914500       0.01212580       0.00229368       0.00280569
H        1.90546000      23.32880000       1.40207000      -0.00278628       0.00296859      -0.00469451
O        5.60713000       4.42209000      12.16820000       0.02552370      -0.00816898      -0.00810495
H        4.15565000       4.53690000      11.09840000      -0.00630491       0.00150075      -0.00492458
H        6.96985000       3.68006000      11.10720000      -0.01900260       0.00722323       0.02204980
