192
Lattice="22.84496 0.0 0.0 0.0 22.84496 0.0 0.0 0.0 22.84496" Properties=species:S:1:pos:R:3:force:R:3 TotEnergy=-1102.06051 cutoff=-1.0 nneightol=1.2 pbc="T T T"
O        6.32869000       0.04464000       5.14095000      -0.06169690       0.03151680      -0.09179570
H        4.28488000       0.45544000       3.76878000       0.06917640      -0.02052270       0.07348030
H        6.08945000      22.43040000       6.93535000      -0.01452300      -0.00793530      -0.02219010
O       17.12470000       3.32247000       3.22835000      -0.01942090      -0.00278452      -0.01770950
H       15.85110000       3.89588000       1.85104000       0.02215980      -0.01601800       0.02390210
H       18.23390000       2.00578000       2.52950000      -0.00596177       0.01917920      -0.00196940
O       18.39220000      14.73130000       4.88628000      -0.00398159       0.00302363      -0.00133526
H       17.04720000      14.45780000       6.05413000      -0.01990830       0.00345559       0.01493220
H       19.80520000      14.69500000       6.08242000       0.00510702      -0.00296274      -0.01753030
O        0.95770500      11.50360000      22.78730000       0.00326507       0.00479359      -0.01296120
H        0.36791300      10.69990000      21.20630000       0.01986640       0.00733519       0.02085250
H        1.75417000      10.27580000       1.07154000      -0.00899338      -0.00573903      -0.01412100
O        6.25167000       9.55845000      17.78040000      -0.01427250       0.00538458       0.00246117
H        8.00832000       9.08238000      17.81670000       0.00918132       0.00060013       0.01096640
H        6.05705000      11.34750000      18.01260000       0.00564055      -0.00908507      -0.00261135
O        2.43553000      19.70970000      14.91820000       0.03379740      -0.01401560      -0.00325919
H        3.01887000      18.97220000      13.30330000      -0.02524810       0.00327503      -0.00468134
H        4.08266000      19.46150000      15.72580000      -0.00729772       0.01542060       0.01046340
O       21.09380000      14.83650000      11.42100000      -0.03108250      -0.03266170       0.02432220
H       21.40760000      12.47720000      12.80430000       0.01331710       0.01969320      -0.01928000
H       19.27500000      14.38310000      11.07050000       0.02245700       0.02879230      -0.00999919
O        5.72259000       9.13647000      12.39690000       0.00455317      -0.02040210       0.00636558
H        6.82123000       7.66223000      12.60030000       0.00276274       0.00853640      -0.01233070
H        4.69366000       8.96907000      13.88530000      -0.00663271       0.01151920       0.00136421
O       11.45450000      17.63370000       4.04923000       0.06250190      -0.06214490       0.05353730
H       12.68690000      16.30780000       5.83116000      -0.04834760       0.06396120      -0.08448580
H       12.60320000      19.00130000       3.55257000      -0.01304110      -0.01545300       0.01578550
O        2.47441000      16.72300000      10.91490000      -0.03419020      -0.10819300       0.23487600
H        2.55289000      17.35410000       9.52553000       0.02724680       0.11151600      -0.24585200
H        0.54112900      16.16010000      10.92450000       0.01639290      -0.00975910       0.01192490
O       17.26440000      19.81530000       1.58797000      -0.02343870      -0.00530180      -0.00161536
H       17.76330000      18.11960000       1.16146000      -0.00814267       0.00510854       0.00222479
H       15.38240000      20.06460000       1.31956000       0.04082060      -0.01947550       0.00579878
O        7.39687000       0.87195300      19.15850000       0.23996600      -0.19820900       0.07464210
H        6.28091000       1.80046000      18.81640000      -0.24588300       0.20563300      -0.07886360
H        6.90783000      22.84401300      20.86220000       0.01070970      -0.00056842       0.00386983
O       12.91790000       7.15689000       5.89593000       0.02696460      -0.00785053      -0.03144190
H       11.73790000       5.82652000       5.29321000      -0.00422847       0.00015084       0.01533800
H       14.00160000       7.33244000       4.35134000      -0.02244140       0.00172789       0.03012830
O        7.60206000      19.26670000      16.58300000      -0.01413840      -0.02709570      -0.03199460
H        8.59813000      18.90180000      15.08440000      -0.00356067       0.01296040       0.01546470
H        8.21676000      20.72300000      17.41920000       0.00514435       0.01912080       0.00651883
O        4.67439000       4.39971000      16.60930000      -0.03954910      -0.00774281      -0.00249933
H        5.75267000       5.80281000      16.45650000       0.00588289       0.01462390       0.00004697
H        2.78979000       5.13360000      16.47480000       0.03563590      -0.00066126      -0.00062956
O        9.77234000      18.15250000       8.42448000       0.01380410      -0.01300930       0.03540200
H        9.76177000      16.39010000       8.86401000      -0.00634008       0.00097715      -0.00832279
H       11.42530000      18.72520000       9.02605000      -0.01019540      -0.00171847      -0.00773463
O       21.80930000       2.82066000      13.04560000       0.02961310       0.01386770       0.00769254
H       22.38510000       4.21390000      14.23650000      -0.00678478      -0.01938910      -0.01051960
H        0.48854000       2.14328000      12.11940000      -0.03048050       0.01402940       0.01055000
O        6.83174000      14.09360000      12.78750000       0.02986400      -0.03079430      -0.00913583
H        5.24466000      14.91620000      12.45550000      -0.00998938      -0.00024706      -0.01958880
H        7.09410000      12.62970000      11.51780000      -0.03951830       0.04134840       0.04013140
O        2.95569000       4.03191000      21.98830000       0.00742579       0.05957220      -0.13136300
H        4.39708000       5.45397000      20.60150000      -0.06080020      -0.06256000       0.06256010
H        1.64885000       3.72073000      20.15370000       0.04232060       0.00258396       0.07912140
O       21.43930000      11.81640000      18.01580000      -0.03009870      -0.08306510       0.03812620
H       18.65210000      12.80160000      20.90160000      -0.01644120      -0.00725485       0.06950600
H       21.93770000      13.54480000      18.08130000       0.01173240       0.02974160       0.01645360
O       12.77250000       8.48226000      13.01540000      -0.01543100       0.03319550      -0.01600600
H       12.71570000      10.38860000      12.15210000      -0.01178210      -0.06572470       0.02764350
H       11.33080000       7.38333000      12.40410000       0.02789110       0.02661830       0.00043458
O        0.53223100       6.01262000       7.39247000      -0.00138121      -0.04177350       0.04506030
H        1.30369000       4.34226000       8.13810000      -0.01276730       0.02643050      -0.01811680
H       22.18758000       6.42402000       8.77324000       0.01315490      -0.00208716      -0.02490790
O       11.11630000       7.78313000      18.46790000       0.02361140       0.02266700      -0.07705610
H       11.69300000       5.90546000      18.47430000      -0.01099960       0.00323025      -0.00308230
H       11.56300000       8.31242000      16.51710000      -0.00875229      -0.02984900       0.06326850
O       20.72140000       0.22924000       0.96511100      -0.01909310      -0.01596480       0.02546680
H       20.76560000       0.07594000      22.03413100       0.00096117       0.00745800      -0.01491360
H       19.58520000      21.58340000       1.38354000       0.01439350       0.02047010      -0.00389235
O       10.29130000       3.08152000       4.67428000       0.03075650       0.00554959      -0.08523280
H        8.74531000       1.95269000       4.48869000       0.01977940       0.01438680       0.00179648
H       11.29470000       3.39400000       2.55184000      -0.04082010      -0.01118380       0.07281960
O       12.07870000      13.11310000      16.85210000      -0.06696250      -0.06847710      -0.03712430
H       10.59470000      12.17070000      15.69290000       0.05377420       0.04822500       0.03735280
H       12.91210000      11.48640000      17.24800000       0.00972338       0.02382470       0.00208246
O       12.82960000      20.28430000      22.37590000       0.04638860       0.03867460      -0.00802243
H       13.72620000      21.98180000      22.26390000      -0.03450890      -0.03406910      -0.00451446
H       11.17740000      20.51300000      21.73320000      -0.03073130       0.00987864       0.00731440
O       11.61510000      11.97010000       6.48429000      -0.01568480      -0.03581250      -0.14828900
H       12.08600000      10.21150000       6.27344000       0.00486359      -0.00858911       0.00455621
H       10.40760000      12.90500000       2.31397000      -0.01000150      -0.00890948       0.06742430
O       17.64930000       6.25366000      17.74340000      -0.00494917       0.00820177      -0.00878272
H       16.66840000       4.76266000      17.95300000      -0.01492140       0.00067413       0.00646526
H       17.75760000       6.40713000      15.90250000       0.00972094      -0.00202157      -0.00115991
O        3.88836000      16.73100000      22.01250000       0.07104830      -0.07077110      -0.02877400
H        4.77215000      15.93640000      20.29380000      -0.01581870       0.05029380       0.05210500
H        4.08141000      14.94860000      22.70420000      -0.02283680       0.02778400       0.01430020
O       16.07650000       0.11034000      17.98250000       0.04913040      -0.03867540      -0.02418320
H       17.69110000       1.29524000      18.25560000      -0.06286020      -0.02807820      -0.00048472
H       16.80480000      21.42970000      17.01670000      -0.02381030       0.03091070       0.02138080
O       12.96980000       9.55311000       1.43170000       0.07399220      -0.02367900      -0.01629510
H       14.43300000       9.99700000       0.31323800      -0.02818640      -0.00388456       0.03084390
H       11.60480000      10.37590000       0.71383800      -0.02786760       0.00403649      -0.01596930
O       13.21030000       4.36834000       0.12864000       0.01314340       0.08562830      -0.03803220
H       12.65360000       3.64346000      21.09430000      -0.00199824      -0.01227530       0.00019393
H       13.38010000       6.40239000      22.19490000      -0.01420220      -0.08907390       0.05105770
O       17.79880000       5.50816000       7.84824000      -0.03836750      -0.00493428      -0.02158790
H       17.73330000       4.59652000       6.18446000       0.01537660       0.00164409       0.01356010
H       15.93770000       5.83124000       7.84879000       0.02058670       0.00564643       0.00854729
O        2.46364000      10.32480000       8.68913000       0.03262180      -0.01892800       0.00585625
H        3.77361000       9.63756000       9.93047000      -0.03100090       0.01437580      -0.01517340
H        2.04727000       8.79543000       7.70403000       0.00329437       0.01278720       0.01321020
O        7.77168000       1.00876000      13.44540000       0.01979850       0.00976143      -0.01628800
H        6.85662000       1.01710000      14.98310000      -0.00526984       0.00039573       0.01453200
H        9.44268000       0.30265100      13.71360000      -0.01434260      -0.00265998       0.01261550
O        1.34367000      22.75110000       4.37530000      -0.03265450      -0.05280830      -0.04208390
H        0.78537700      20.71010000       4.08602000       0.03722750       0.07048390       0.02690760
H        0.52161800       0.68074000       2.85726000      -0.00542898      -0.00250086       0.01764050
O        8.10061000      15.49060000      19.29930000      -0.01420010      -0.03515400      -0.00668080
H        9.41849000      14.29540000      18.71400000      -0.01091320       0.01396540      -0.00042928
H        6.90243000      15.57740000      17.86280000       0.03013960       0.00972971       0.00795177
O       18.49980000       7.30549000      12.67230000      -0.02016150      -0.04876660      -0.08325380
H       16.82400000       7.79890000      12.00380000       0.01044690       0.00137104       0.01762650
H       18.92790000       6.02793000      10.95250000      -0.01347080       0.04225610       0.06564100
O        0.34224000       6.47088000      16.57160000      -0.00917776      -0.00477559       0.01349190
H       22.03140000       7.55186000      15.71330000       0.00988237      -0.00203156      -0.00265711
H       20.51270000       9.30763000      19.71300000       0.03154290       0.04081910      -0.04529440
O       12.04150000       3.00867000      18.72450000      -0.05902220      -0.02655220       0.00531697
H        9.96227000       2.49123000      18.89640000       0.06990020       0.00598178      -0.00378719
H       13.88180000      22.77167100      18.04210000       0.04143890       0.05203910      -0.00172861
O       22.37790000      19.24650000      20.46450000       0.04734110      -0.10738200      -0.01037620
H        1.00914000      17.63280000      20.78160000      -0.06802260       0.08824350      -0.00177489
H       21.66290000      18.21520000      18.95750000       0.01130030       0.03277050       0.02620660
O       14.39450000      21.73060000       5.29847000       0.01115010       0.02113210       0.00538273
H       16.06770000      20.97360000       5.20404000      -0.00934977       0.01069130      -0.00175141
H       14.57820000       0.73204000       5.18025000       0.00097953      -0.01717870      -0.00907920
O       19.23040000       8.20757000       2.05164000       0.02337710       0.00316746       0.03912290
H       19.40780000       7.82524000       3.92889000      -0.01644510       0.00779406      -0.04042670
H       21.05030000       7.82361000       1.63458000      -0.00681387      -0.00337685       0.00621344
O       22.39540000       1.36784000      19.15020000      -0.01976670       0.01983290      -0.03287460
H       22.25710000       0.95259800      17.33310000       0.01124410       0.00265192       0.02159340
H        0.21434000      22.79239400      20.02620000       0.01385910      -0.02299320      -0.00846939
O       16.19180000      15.27790000       9.89174000      -0.00339221       0.03175310      -0.00719326
H       11.41380000      15.04130000      12.14860000       0.03246730      -0.08958590      -0.03851300
H       16.45320000      17.15430000       9.82802000      -0.00474356      -0.04487170       0.00081136
O       14.39910000      20.42840000      10.02750000       0.01428550       0.04649550      -0.02446580
H       14.28920000      21.72730000       8.63644000      -0.00935288      -0.03102760       0.00675956
H       16.14030000      20.77760000      10.49870000       0.00123147      -0.00907876       0.01438820
O       19.47660000      21.16030000      12.67910000      -0.01525020       0.01575780      -0.00640596
H       19.73840000       0.15554000      12.57050000       0.00476818      -0.01107670       0.00615645
H       20.85280000      20.52030000      11.69990000       0.00397569      -0.00740887       0.00131600
O       17.83740000      12.35970000       0.63668500       0.03400350       0.00968220      -0.05496610
H       17.65460000      13.64700000       2.10905000       0.01713660      -0.00409246      -0.01053670
H       19.08840000      10.93770000       1.45358000      -0.02675310      -0.00015335      -0.01139910
O        1.03418000       7.22062000       2.58755000       0.00998006      -0.02642900      -0.03711690
H        1.49681000       5.72467000       1.29861000       0.00517831       0.02879500       0.02675630
H        0.83584600       6.68606000       4.33602000       0.00323654      -0.00947675      -0.00362286
O       22.19660000      16.30490000      16.71090000      -0.05567010      -0.04569390       0.03783250
H        0.52574000      17.24630000      15.84580000       0.04588360       0.04279110      -0.03890690
H       20.79770000      15.96580000      15.60150000       0.00307659       0.00173247      -0.01769680
O       16.39980000      11.11840000      18.65650000       0.00292681      -0.06182780       0.06020610
H       16.75630000      10.57050000      20.52870000      -0.02291660       0.01670630      -0.05714980
H       16.42600000       9.25521000      17.96590000       0.00514239       0.03565400       0.00991863
O        1.56744000       1.25194000       9.13593000       0.03786000      -0.04635390      -0.04777100
H        3.08341000       0.10566300       9.65171000      -0.03980210       0.03419220      -0.01761400
H        1.26005000       0.64696500       6.82401000       0.00809231       0.01090270       0.05492470
O        8.90841000       5.27640000      11.38790000      -0.02886580      -0.03782990       0.02030800
H        7.34252000       4.89436000      10.53390000       0.00487441       0.01698380      -0.02187420
H        8.50461000       3.73310000      12.53510000       0.02287590       0.01571460      -0.00162829
O        6.93158000      21.26760000       0.14452200      -0.01813370      -0.05661830       0.00931495
H        6.84923000      21.54850000       1.95862000       0.00771148       0.00376757      -0.00888133
H        5.42751000      18.02800000       0.19241000      -0.00988594       0.02716650      -0.02962290
O       10.62170000      13.43240000       0.68317800      -0.02333890       0.05645820      -0.14218200
H       12.26320000      12.40700000      20.92616000      -0.01638060       0.00830747       0.01998330
H        9.14532000      14.30980000      22.54682700       0.03944340      -0.02252450       0.04241150
O        0.20271700      13.51460000       5.22465000       0.04024270      -0.02901010       0.00978197
H        1.52674000      12.83220000       6.43593000      -0.02911990       0.00951649      -0.01078920
H       22.74901700      12.04030000       4.14912000       0.00143613       0.01949640       0.00815937
O       21.73920000      10.65670000      13.63630000      -0.02040250       0.00312438       0.00927653
H       21.71730000      11.04700000      15.71230000      -0.00583483      -0.00490929      -0.02576160
H       20.16720000       9.63958000      13.12750000       0.02573270       0.00521188       0.00653070
O        2.62506000      18.48570000       5.82684000       0.01122660      -0.04786860      -0.02295340
H        2.65131000      16.63720000       5.11518000       0.00652435       0.06005450       0.02566840
H        4.30107000      19.35410000       5.86861000      -0.01976920      -0.02301760      -0.00953491
O       12.25550000      21.13260000      14.27570000       0.03151570      -0.01958080      -0.05074440
H       12.52360000      21.85530000      12.45760000       0.00354677      -0.02830660       0.05016820
H       13.35170000      19.51950000      14.14310000      -0.03484420       0.05362540       0.00596285
O       13.99340000      18.09620000      17.77840000      -0.00024518      -0.04614570      -0.02441130
H       13.58720000      16.43670000      16.66170000       0.01078710       0.05612740       0.06777830
H       13.54950000      18.20940000      19.62140000       0.00132402      -0.01667370      -0.03436380
O        7.16865000      13.03910000       7.44289000      -0.08638890      -0.01229910       0.03690860
H        5.94415000      11.66610000       8.10055000       0.03118430       0.03887710      -0.02923940
H        8.71469000      12.32690000       6.97992000       0.03265930      -0.02350290      -0.01633000
O       11.57040000      12.81420000      11.18800000      -0.04951830       0.12505600       0.05072110
H        9.69207000      13.07410000      11.19170000       0.02861730      -0.02326580      -0.00760515
H       11.87830000      12.51480000       8.00569000       0.03551540       0.03817710       0.12470700
O        6.47522000      21.34380000       9.26543000       0.01977490       0.05251670       0.03868150
H        7.17247000      19.62010000       9.67614000       0.01470380       0.03890660      -0.01395570
H        7.72988000       0.14424000       9.36700000      -0.04031290      -0.08677540       0.01166300
