192
TotEnergy=-1102.61669000 cutoff=-1.00000000 nneightol=1.20000000 pbc="T T T" Lattice="25.15426000       0.00000000       0.00000000      -0.00000100      25.15426000       0.00000000      -0.00000100      -0.00000100      25.15426000" Properties=species:S:1:pos:R:3:force:R:3:Z:I:1
O              12.97630000     18.63390000      2.99057000     -0.01060720      0.06476290     -0.07266490       8
H              11.31160000     19.33930000      2.35066000      0.04288910     -0.01306620      0.02314040       1
H              12.50820000     17.46560000      4.13776000     -0.02121500     -0.05211000      0.05148650       1
O              12.23870000     11.30420000     19.89470000     -0.04368410      0.04330310     -0.04209160       8
H              11.98490000     10.98580000     18.07450000      0.00172286      0.00733147      0.00807996       1
H              13.10550000      9.88654000     20.27630000      0.03971740     -0.05361970      0.02808870       1
O               2.59737000      2.98953000     24.35160000      0.03174690     -0.07009690     -0.00994634       8
H               0.92951100      2.49802000     24.08750000     -0.03223850      0.00037503     -0.00307420       1
H               2.64167000      4.67382000     24.66010000      0.00117484      0.06314640      0.01073600       1
O              13.66660000      4.42385000     10.68460000      0.00913657      0.04841940     -0.02013600       8
H              15.01550000      3.37656000     10.10900000      0.00671851     -0.00360999      0.00732403       1
H              14.20200000      6.16398000      9.82825000     -0.02382280     -0.03143050      0.02286440       1
O              24.65470000     16.78470000     21.02280000     -0.02585570     -0.00821316      0.03925470       8
H              23.96190000     16.00760000     19.61500000     -0.01364680     -0.02011990     -0.02965200       1
H              25.71770000     18.00700000     20.42780000      0.04300850      0.03274010     -0.02226340       1
O               0.06975100      3.36591000      7.31147000     -0.01526090      0.02561750     -0.05076600       8
H               1.51624000      4.27904000      6.72443000      0.00544522      0.01249170     -0.01671450       1
H               0.69379500      2.80031000      8.79198000      0.01186960     -0.03171450      0.06676790       1
O              22.35660000      8.78721000     14.36370000      0.03178800      0.08682310     -0.03674200       8
H              21.66730000      9.30528000     15.87410000     -0.02079870      0.00976615      0.03415920       1
H              22.16240000      7.11922000     14.32560000     -0.01095170     -0.09116270     -0.00278507       1
O              17.36390000      0.77368200     15.74540000     -0.05378980     -0.02077490     -0.04263060       8
H              18.97910000      0.49104100     15.20210000      0.04939750     -0.01372030     -0.03640690       1
H              17.69150000      1.40583000     17.28280000      0.00079533      0.03465680      0.07476080       1
O               5.93897000     17.57590000      0.91998800     -0.20265100     -0.00391908     -0.04683450       8
H               4.14363000     19.68630000      0.98482700      0.06475680     -0.07623530      0.00674528       1
H               7.22820000     18.43380000      1.38367000      0.12371200      0.08157920      0.05045230       1
O              11.30450000     15.44780000     15.11390000      0.08855980     -0.07837990     -0.06629530       8
H              11.84770000     13.35270000     15.15550000     -0.03190830      0.05696830     -0.00709262       1
H              10.17030000     16.07770000     16.16880000     -0.06215730      0.01720840      0.07100930       1
O              21.17660000     10.17280000      1.16069000      0.02042330     -0.01693210      0.02582410       8
H              22.73310000      9.22972000      0.99517300      0.00149388      0.00737030     -0.02124870       1
H              21.19320000     10.03000000      3.00101000     -0.01967160      0.01433120     -0.00314427       1
O               2.78612000     17.41720000      8.53661000     -0.05934380      0.07503130     -0.04680820       8
H               3.21177000     16.96780000      6.86816000      0.01486990     -0.02133540      0.00016925       1
H               3.45819000     16.57770000      9.84138000      0.04710590     -0.05050900      0.04489090       1
O              10.38630000      4.10341000     21.43240000      0.04088110     -0.00185761      0.16095100       8
H               9.99826000      3.74189000     19.92990000     -0.04256240     -0.06048740     -0.16927000       1
H              10.38560000      5.82626000     21.31760000     -0.00591836      0.05880740      0.00984744       1
O               7.88733000     12.17020000      1.33500000      0.06143480     -0.05361320      0.05217520       8
H               7.95252000     13.15410000     -0.03046800     -0.01635170      0.06432140     -0.07412700       1
H               9.77866000     11.78750000      1.27915000     -0.04472200     -0.00181602      0.02018830       1
O              21.59070000     24.39920000      7.95189000      0.00553356      0.05113600      0.09833830       8
H              20.33130000     23.42640000      7.41596000     -0.07217480     -0.05869120     -0.02594410       1
H              22.70700000     24.46750000      6.71658000      0.07175380      0.00246639     -0.07404580       1
O              21.62350000     18.18940000      6.99275000     -0.09102940     -0.00361818     -0.01565670       8
H              22.13880000     18.41950000      5.33475000      0.01871880      0.01233900     -0.03357890       1
H              22.93910000     18.05990000      8.03480000      0.07242980     -0.00898542      0.04711500       1
O              17.12690000     24.07690000     22.43910000     -0.00608196     -0.05241330     -0.03043930       8
H              17.49770000     25.55170000     23.28800000      0.01761110      0.02349440      0.01878690       1
H              18.59150000     22.91660000     22.21060000     -0.01531510      0.02881400      0.00867597       1
O              18.22340000      3.82038000      7.52293000     -0.07242530     -0.00086486      0.02157280       8
H              16.62940000      2.95725000      6.92483000      0.04233690      0.02340700      0.00429586       1
H              19.43400000      3.25731000      6.41046000      0.03052460     -0.02066730     -0.02807230       1
O               8.53560000     19.97350000      5.57381000      0.03655470     -0.03661000     -0.01728490       8
H               8.39605000     18.80760000      6.94869000     -0.00283373      0.00048799      0.00434191       1
H               7.37742000     21.23550000      5.74191000     -0.03545150      0.03729040      0.01244970       1
O              18.90460000     15.27740000     19.43450000      0.02796670      0.03711780      0.00010848       8
H              19.85900000     16.78720000     18.87380000     -0.00016688     -0.03113000     -0.00315881       1
H              17.49700000     16.36140000     19.77310000     -0.02309800     -0.01931190      0.00667860       1
O              22.36210000      2.12241000     19.67030000      0.00238850     -0.09830380     -0.00696308       8
H              21.80100000      0.15598500     19.83670000      0.00930772      0.08337720      0.00834474       1
H              24.05620000      1.59032000     19.04910000     -0.01383020      0.02293700      0.01083430       1
O              17.60400000     18.12250000     10.61600000     -0.11036700      0.00899136      0.02085120       8
H              18.43190000     17.94560000      9.10379000      0.03133400     -0.00151940     -0.04672620       1
H              15.62640000     18.30100000     10.04100000      0.08319860     -0.01457000      0.02837530       1
O               1.35016000      4.68917000     14.51270000     -0.04057500      0.01958300      0.01004470       8
H               2.90301000      4.06662000     14.10790000      0.05943500     -0.01024480     -0.01967500       1
H               0.74508300      3.25117000     15.38700000     -0.01875020     -0.00849986      0.00942831       1
O              13.12040000     24.10490000      9.29325000     -0.03418990      0.06839980      0.08118220       8
H              14.63660000     24.21620000      8.40908000      0.03239290     -0.00182460     -0.01494260       1
H              13.12980000     25.72740000     10.64320000      0.00064101     -0.07591520     -0.06392780       1
O              13.69170000     10.94180000      3.63303000      0.04344690      0.07045830      0.03639230       8
H              13.60390000      9.58233000      2.59646000      0.00134434     -0.05569850     -0.04650110       1
H              15.33450000     11.86650000      3.20906000     -0.03887150     -0.02213120      0.01083520       1
O              17.82170000     14.53810000      4.09803000     -0.01490780      0.07367540     -0.03277610       8
H              17.40650000     16.24740000      3.24084000     -0.00929067     -0.05578080      0.01251480       1
H              19.30740000     15.30890000      4.76154000      0.02058450     -0.01890920      0.02179130       1
O              11.74000000     10.57290000     14.41420000     -0.03651610      0.02163110      0.06796440       8
H              12.45430000      9.87294000     13.01950000      0.02958450     -0.02217090     -0.05258500       1
H               8.94918000      6.09766000     15.67220000      0.03885930      0.03907100      0.00750301       1
O              18.81140000     12.16930000     10.77850000     -0.06325230      0.05228840     -0.06426140       8
H              19.78480000     11.03710000     11.50950000      0.06551540     -0.06321940      0.06096530       1
H              18.60860000     13.67080000     11.73980000     -0.00052872      0.00715947      0.00600694       1
O              16.93240000     22.22710000      5.52623000     -0.03668650     -0.12198100     -0.00614651       8
H              15.69960000     20.75560000      4.57236000      0.04992090      0.05689800      0.04596940       1
H              16.36130000     23.53620000      4.60214000     -0.01669590      0.06808490     -0.04392830       1
O               9.17551000     14.35900000      8.50948000     -0.04172690     -0.10665400      0.02644460       8
H               8.88935000     12.79720000      9.89359000      0.01309450      0.07935070     -0.06091180       1
H              10.12210000     15.47950000      9.41788000      0.03612370      0.03590510      0.03499340       1
O               3.54047000      6.63643000      4.53441000      0.00660426     -0.11786300      0.04651770       8
H               2.57672000      7.08462000      3.24196000     -0.06187330      0.01339560     -0.08342560       1
H               4.14366000      8.14466000      4.88128000      0.05357550      0.10629700      0.03721820       1
O               1.21784000     19.77450000     14.83600000     -0.06073370      0.02723500      0.12374500       8
H               2.88144000     20.00460000     14.94050000      0.08958870     -0.00075922     -0.00023709       1
H               0.66642100     19.51880000     13.31600000     -0.03472690     -0.02313390     -0.12098300       1
O              12.39970000     23.32740000     18.90570000     -0.00319455      0.04387770     -0.07420530       8
H              13.26140000     23.04460000     20.37350000      0.03231860     -0.01033300      0.04819400       1
H              13.54510000     24.55590000     17.95450000     -0.02557930     -0.03429840      0.02537090       1
O               1.19125000      8.59948000     19.37470000     -0.03230090     -0.04404990     -0.03816450       8
H               1.91788000     10.06770000     18.76940000      0.02231070      0.03848360     -0.00638647       1
H               0.70656700      7.82324000     17.69300000      0.00782158      0.00739877      0.03933930       1
O               8.24934000      1.56929000     17.19070000      0.03916620      0.06095280     -0.04168060       8
H               7.31632000      0.38954100     17.96160000     -0.04613940     -0.05420080      0.03831210       1
H               9.60781000      0.65640300     16.43810000      0.00551950     -0.00330953      0.00014154       1
O               8.58439000      5.15846000     12.67950000      0.05910280     -0.00841075     -0.06326900       8
H              10.41680000      4.43515000     12.31580000     -0.03897800      0.02242390      0.01437860       1
H               8.11823000      5.13255000     14.40750000     -0.03701640     -0.04011410      0.03036310       1
O              19.22600000      6.26371000     17.83220000      0.06507860     -0.00488933      0.08290160       8
H              20.05210000      4.64922000     18.69140000     -0.02401570      0.04525620     -0.03384160       1
H              20.05870000      7.57182000     19.11290000     -0.03741040     -0.04055250     -0.03949490       1
O              17.41290000      1.89236000      2.40531000      0.02291540     -0.03315690      0.04736920       8
H              16.61150000      2.63994000      1.11348000     -0.05908990      0.04464290     -0.05040330       1
H              19.01570000      1.81844000      1.64642000      0.03452810     -0.00465719      0.00829115       1
O              22.43230000     24.72850000     13.19950000     -0.02007510      0.09121720     -0.07520770       8
H              22.92810000     23.48360000     14.16820000      0.03846580     -0.09062130      0.05731890       1
H              23.11030000     24.52320000     11.46430000     -0.02123760     -0.00199701      0.02199360       1
O               7.26653000      8.80780000     22.11810000      0.05408340      0.05209610     -0.05723300       8
H               6.17856000      9.93237000     22.95530000     -0.02093810      0.00316501      0.02087460       1
H               8.36820000     10.23580000     21.17570000     -0.03024530     -0.05981200      0.03157890       1
O               8.13386000     23.62940000     22.94320000     -0.03386160     -0.03882690      0.03327250       8
H               9.09015000     24.01180000     21.57200000      0.04349260      0.00790609     -0.05341170       1
H               7.75046000     25.20850000     23.60180000     -0.00634054      0.03466550      0.01714160       1
O              17.06850000     18.38070000     15.98720000     -0.01471380      0.01462440     -0.01157290       8
H              17.77190000     18.72010000     14.28720000     -0.02524190     -0.00611499      0.01813880       1
H              15.18940000     18.49220000     16.00940000      0.03529020     -0.00408554     -0.01261990       1
O               1.17653000     22.55460000      5.71057000     -0.08443810      0.02512390      0.00707849       8
H               1.75924000     21.70250000      7.07832000      0.01199950     -0.03644130      0.05973740       1
H               2.52693000     22.56850000      4.72641000      0.07896040      0.01130020     -0.06774420       1
O              25.20740000     13.79260000     14.02420000      0.13731600      0.15310600     -0.07002020       8
H              25.66560000     12.77090000     12.56800000      0.01628130      0.02100800     -0.02910170       1
H              24.31640000     12.56960000     14.33130000     -0.16780800     -0.18546700      0.09146600       1
O               9.88279000     16.10150000     21.02390000     -0.07798360      0.07819410      0.02227730       8
H              11.16740000     16.87970000     21.92360000      0.03215660      0.01016460      0.00952781       1
H              10.37320000     14.63590000     20.40040000      0.04325940     -0.08843500     -0.03353130       1
O              21.07100000     21.60760000     20.51640000      0.07228580     -0.04661500     -0.00987289       8
H              21.22560000     22.44210000     18.90880000     -0.00874162     -0.01115590     -0.00507482       1
H              22.66770000     20.33290000     20.49210000     -0.06491120      0.04527200      0.00978486       1
O               1.29806000     14.71800000     25.26750000     -0.02247350     -0.07357000      0.03604890       8
H               2.27090000     16.04770000     25.63830000      0.06478020      0.05514280      0.02684160       1
H               0.63129200     15.26940000     23.78110000     -0.03540740      0.01067600     -0.05980220       1
O               1.67333000     24.57830000     18.67960000     -0.04420480     -0.00474861     -0.04166580       8
H               1.35761000     23.31850000     17.36020000     -0.00537321      0.01059300      0.00479692       1
H               3.16293000     23.95200000     19.28790000      0.04885100     -0.01072420      0.03121550       1
O              14.94190000     18.03880000     22.63010000     -0.01455330     -0.02249670     -0.03475440       8
H              14.55160000     18.09610000     24.32590000     -0.01024690     -0.00264329      0.04805790       1
H              16.12310000     19.31290000     22.43010000      0.02306150      0.02958180     -0.00743494       1
O              22.92490000      3.78405000      2.61478000     -0.01491630     -0.06307620     -0.04044760       8
H              23.56980000      3.11153000      4.10882000      0.01542910     -0.03561820      0.02759800       1
H              23.05080000      5.37826000      3.13712000     -0.00233367      0.09592090      0.00848632       1
O               6.32095000     10.30350000     12.36420000      0.04598940      0.03039490      0.01760370       8
H               7.06539000      9.47481000     11.01190000      0.02116820     -0.01689700     -0.02321790       1
H               4.79481000      9.57516000     12.48890000     -0.07266250     -0.03165590      0.00619049       1
O              14.21760000      9.36079000      8.97284000      0.00544647     -0.00656329     -0.08757540       8
H              15.85030000      9.99937000      9.39013000      0.00729239      0.01153490      0.01278220       1
H              14.33460000      9.60395000      6.88099000     -0.01681240     -0.00382910      0.07331910       1
O               5.49098000     18.23070000     17.31450000      0.04635460      0.00972487      0.07285000       8
H               6.01936000     16.84910000     16.23640000     -0.00465929      0.00408284      0.00298506       1
H               6.64564000     18.22380000     19.00680000     -0.03896840     -0.00828668     -0.07117570       1
O              11.70640000     18.68900000     11.11510000      0.08890420      0.06128930     -0.08956370       8
H              10.77980000     18.55130000     12.53140000     -0.02761470     -0.00307101      0.07016420       1
H              12.95900000     20.25840000     11.08330000     -0.06128350     -0.04750190      0.00972683       1
O              14.15720000      5.72075000     16.93130000     -0.00481968      0.00618137      0.06162370       8
H              15.59620000      6.46764000     17.84400000     -0.01397390     -0.01431170      0.00645029       1
H              14.85970000      6.03934000     15.39470000      0.01051320      0.00247587     -0.06780250       1
O              18.14810000     10.40810000     22.01740000      0.04237160      0.00894874      0.03176350       8
H              18.45710000     11.27150000     20.48140000     -0.00696775      0.01491600     -0.01221880       1
H              19.50540000     11.20460000     23.15800000     -0.04062270     -0.02729400     -0.01992170       1
O               3.58339000     22.62030000      0.52172900     -0.04186890      0.05627840      0.02802330       8
H               3.52216000     24.54210000      0.18298700     -0.00274891     -0.04104810      0.01241410       1
H               4.78579000     22.03240000     -0.55792100      0.05207690     -0.00781390     -0.04799010       1
O              23.92090000     19.35900000      2.09948000     -0.04382490      0.01594080     -0.02010450       8
H              25.12310000     20.26290000      2.97873000      0.02441690      0.03064320      0.02495150       1
H              24.50640000     17.72700000      2.12052000      0.01194580     -0.05208590     -0.00608458       1
O              21.30280000      9.12853000      6.58407000     -0.03854120      0.01227270      0.03928590       8
H              21.34270000      7.31629000      6.74845000     -0.00733237      0.00313792      0.00409342       1
H              19.87460000      9.74140000      7.80117000      0.04615720     -0.01784310     -0.04348770       1
O               5.26819000     11.66560000      5.84755000     -0.05274260      0.06209110     -0.08090470       8
H               5.23002000     12.95200000      3.93920000      0.01321470     -0.06598930      0.08956000       1
H               6.90890000     11.06310000      5.87273000      0.04210930     -0.00140198     -0.00627261       1
O               1.36207000      9.45522000     24.88080000     -0.00252810     -0.04366250      0.00286985       8
H               1.62969000     11.16420000     25.03690000      0.01469880      0.05718850      0.02898850       1
H               0.73628800      9.56530000     23.22120000     -0.00969153     -0.02240110     -0.02806450       1
O               0.81348900     11.04110000      8.68222000     -0.02148580      0.08638940      0.04018560       8
H               2.09227000     10.01580000      8.33880000      0.07882070     -0.04852290     -0.02457200       1
H              -0.57716300     10.04960000      8.54355000     -0.06087030     -0.03165060     -0.00893618       1
O              13.82940000      6.45264000     24.51770000      0.02016310      0.03251230      0.09696160       8
H              14.74130000      6.86524000     23.15880000      0.04833200      0.02239470     -0.06471740       1
H              12.60160000      5.40193000     24.02770000     -0.05855880     -0.05384650     -0.02433870       1
O               5.18262000     14.99280000     13.05270000     -0.09871550     -0.02312610     -0.02229710       8
H               5.86758000     13.57520000     13.88730000      0.02119880     -0.01446040      0.00069458       1
H               3.30028000     14.01710000     12.60430000      0.08982920      0.05539220      0.02563570       1
