192
Lattice="25.46538 0.0 0.0 0.0 25.46538 0.0 0.0 0.0 25.46538" Properties=species:S:1:pos:R:3:force:R:3 TotEnergy=-1103.10672 cutoff=-1.0 nneightol=1.2 pbc="T T T"
O       21.65950000      15.45730000       7.33368000      -0.05945210      -0.06085280      -0.04618670
H       20.33260000      14.85850000       5.92246000       0.04645980       0.01184290       0.04588420
H       21.60280000      17.16440000       6.94028000       0.01035660       0.04725420      -0.00432659
O       16.33450000      21.11020000      14.29460000      -0.04001020      -0.00715411      -0.10520900
H       17.10000000      21.14110000      15.75340000       0.07189210      -0.00018019       0.10594200
H       14.66330000      21.35700000      14.83290000      -0.03161980       0.00399137      -0.00307245
O       18.00030000      15.60200000      11.96210000      -0.01677290      -0.00811864       0.02060760
H       18.49500000      15.64360000      10.21960000       0.01197180       0.01953680       0.00620253
H       18.29550000      17.09590000      13.01750000       0.00354231      -0.00958735      -0.02648630
O        7.91644000      17.39400000      10.52780000      -0.03317610      -0.01398260       0.07066680
H        7.10842000      18.68340000      11.61210000       0.01550110      -0.00801025      -0.02650770
H        8.52439000      18.07080000       9.04174000       0.01546010       0.02441990      -0.03814820
O        8.72646000      11.00270000       6.21987000      -0.00296398       0.02719350      -0.02283730
H        7.64759000      11.76900000       4.89484000       0.00152059      -0.01256570       0.01559060
H        9.76706000      12.48860000       6.56016000       0.00371577      -0.01806470       0.00771941
O        5.14879000      20.10990000      20.63750000      -0.01904600      -0.02817690       0.04833410
H        4.92164000      21.53220000      19.64730000      -0.00616615       0.03388770      -0.02290450
H        3.99746000      20.40510000      22.12150000       0.02268590      -0.00324133      -0.02520150
O        6.78084000      22.93880000      13.11630000      -0.00971520       0.00868287       0.01729980
H        7.26063000      24.51940000      12.37910000       0.00944463      -0.00191057      -0.01391820
H        5.35421000      23.57190000      14.11740000       0.00156466      -0.00975648       0.00080613
O        7.79948000       2.98197000      20.13530000      -0.01442740      -0.07804940       0.02913780
H        8.23293000       4.58257000      19.84110000       0.02122400       0.09750490      -0.01205270
H        7.65899000       2.31236000      18.50030000      -0.00386606      -0.01550470      -0.01713520
O        0.26369900       6.52989000      10.28720000      -0.01586630       0.06476320      -0.07129020
H       25.25913600       8.53126000       8.50837000       0.02072110      -0.06395110       0.04936860
H        0.34506500       7.47924000      11.82710000      -0.00370726       0.00069260       0.00656139
O        1.72753000      21.93030000      25.01870000      -0.02072950       0.02567820      -0.01017390
H        1.18726000      23.69830000      24.92590000       0.00262400      -0.01157130      -0.01266180
H        2.43906000      22.06540000       1.18260000       0.01620210      -0.01384190       0.02458410
O       21.86000000      21.05200000       5.30400000       0.01065700      -0.00453547      -0.02203130
H       20.12270000      21.17920000       5.61587000      -0.03342790       0.00770802       0.03826310
H       21.53880000      20.95320000       3.52100000       0.02488640      -0.00660412      -0.01600810
O        4.87273000      14.14040000      13.58470000      -0.03391780      -0.02112460       0.02081320
H        6.40390000      14.69810000      12.94690000       0.02409140       0.01531300      -0.03003750
H        3.57324000      13.92080000      12.29800000       0.00980515       0.00437959       0.01048480
O       21.84060000      19.35930000      24.78960000       0.02515810       0.13799000       0.00611128
H       22.90440000      18.05210000      24.78510000       0.04516620      -0.08795980      -0.00673979
H       23.47240000      20.73230000      24.80820000      -0.07244530      -0.04621480      -0.00258624
O        8.10650000       8.43314000      18.58350000      -0.06845770      -0.07090190      -0.07874950
H        8.24957000       8.30263000      16.63600000      -0.00801329       0.00475985       0.05287710
H        9.37198000       9.46321000      18.93470000       0.07985280       0.06380650       0.02804560
O       22.25450000       2.49414000       9.78574000      -0.09563970      -0.02189630       0.03353740
H       23.09540000       1.21551000       9.05384000       0.04264550      -0.05771660      -0.03102860
H       23.13350000       3.93026000       9.65723000       0.05792460       0.07835210       0.00088835
O        9.76061000       9.72830000      24.39620000       0.01205820      -0.01694080       0.04847550
H       10.76230000       8.69584000      23.28050000       0.00516866      -0.00130763      -0.00811486
H       10.23820000       9.00590000       0.64202700      -0.01466240       0.01498220      -0.03921950
O        3.25848000      25.37869900      16.48590000      -0.04730900      -0.02320160      -0.01714010
H        3.43474000       1.71782000      16.64980000      -0.01298790       0.00200409      -0.00053158
H        1.40599000      24.94128600      15.95610000       0.05578270       0.01979890       0.01625980
O       11.35270000      23.97190000       8.32610000       0.00472889       0.00255690      -0.01338170
H       10.25620000      24.32750000       6.87436000       0.01536620       0.01350520       0.01435220
H       12.57280000      25.39851200       8.49807000      -0.02011700      -0.01755830       0.00074603
O       16.42500000      20.40780000       1.28524000      -0.03093790       0.04549100       0.03597120
H       16.19690000      18.81440000       1.98140000       0.00084481      -0.03422390       0.01095730
H       17.21950000      20.25230000      25.23108200       0.03190910      -0.01158980      -0.04646410
O        2.80412000      15.55480000      18.46890000      -0.00203865      -0.02009780      -0.01665170
H        4.21337000      15.08100000      17.43320000      -0.01488130      -0.02709620      -0.02746670
H        3.86558000      16.68150000      19.26450000       0.01195180       0.05167130       0.04884980
O       11.09940000      22.97760000      16.42920000      -0.05164680      -0.01886230      -0.00811928
H        9.47105000      22.72700000      15.45330000       0.03055310       0.01941960      -0.01519060
H       10.32450000      22.01170000      17.76250000       0.02243580       0.00027909       0.02276270
O        8.70785000       9.90747000      13.30170000      -0.03691510      -0.05495730      -0.00995758
H       10.01970000      10.93710000      13.62250000       0.07550290       0.04061820       0.00834621
H        7.38681000      11.03400000      13.64850000      -0.03778910       0.00989796       0.00006202
O        9.05199000       1.44170000       4.48299000      -0.00939384       0.00474385       0.04440280
H        9.12513000       1.28164000       2.74434000       0.00736417       0.00089874      -0.04195550
H        9.62641000       3.14842000       4.85302000       0.00236178      -0.00636792      -0.00789387
O        4.34463000       1.27975000       8.33971000      -0.06204780      -0.00345353       0.03524820
H        5.90432000       1.96972000       8.05604000       0.04757770       0.01928690      -0.00819008
H        3.57326000       2.40665000       9.63370000       0.01198600      -0.01377350      -0.02427950
O       17.54110000      14.14490000       2.92032000      -0.06096960      -0.06797900       0.08276990
H       18.25140000      13.25640000       1.56665000       0.01929640      -0.01509620      -0.03037920
H       16.46920000      12.18360000       4.15387000       0.04456220       0.08370520      -0.05348530
O       17.22680000      21.62570000       7.80413000      -0.10313700      -0.01512350       0.00645563
H       15.18300000      21.36940000       7.48832000       0.08621180       0.01342780       0.00336453
H       17.04890000      21.70980000       9.64139000       0.01546430       0.00264303      -0.00768096
O       19.69810000       0.93477100      17.41510000       0.17794000      -0.02600020       0.09565200
H       18.04650000       1.05318000      17.36750000      -0.11887900       0.00850300       0.01284950
H       20.60440000       0.60450400      19.71310000      -0.05672530       0.01658420      -0.10181900
O       13.66150000      11.99260000      18.98660000       0.04919320      -0.06562450       0.13058800
H       12.95350000      13.06620000      17.94510000      -0.04468200       0.08249660      -0.06952660
H       13.64990000      12.69330000      20.83270000      -0.00516374      -0.01412880      -0.06360550
O       14.11200000       2.20644000      16.40260000      -0.00151441       0.02724210       0.00768511
H       13.00500000       2.96691000      17.62130000       0.01310530       0.03518020       0.00853382
H       13.07310000       0.79347600      16.49160000      -0.01121790      -0.06043580      -0.02218850
O       16.46480000       8.04134000       4.04359000      -0.01016020       0.01361400       0.01264770
H       17.20790000       8.21037000       2.38116000       0.00489923      -0.01883220       0.00628352
H       17.22410000       6.74047000       5.11401000       0.00252578       0.00405598      -0.01928590
O       19.04570000      18.23780000      19.43320000       0.06420930      -0.02778990      -0.08946550
H       20.96530000      18.04020000      18.86180000      -0.06944760       0.00703701       0.01858060
H       19.15610000      18.70410000      21.07210000       0.01011110       0.01962630       0.06825210
O       10.94140000       6.59586000       4.53014000      -0.01812890      -0.01084350      -0.00592483
H       12.58180000       7.07949000       4.10595000       0.04630660      -0.01032490      -0.00908041
H       10.39740000       8.25755000       4.93278000      -0.02841310       0.02098630       0.01816200
O       13.59250000       7.00157000      21.15840000      -0.00070183       0.01871270      -0.03784560
H       14.98950000       6.77945000      22.27490000       0.01285400       0.00219428       0.00613661
H       14.23750000       8.12110000      19.74570000      -0.01599010      -0.02032680       0.03421460
O       24.67550000      14.99640000      23.16760000      -0.07512610       0.02724670       0.04281360
H       25.29971100      14.40780000      24.71760000       0.02543080      -0.01848550       0.00673880
H        0.12824100      14.81030000      21.74860000       0.05378160      -0.01521400      -0.05031550
O       13.49050000      13.70720000       7.11265000      -0.06079280       0.03443030      -0.06048790
H       14.63800000      13.07400000       8.18642000       0.04820440      -0.01862260       0.05668630
H       13.17630000      15.50490000       7.33828000       0.00892110      -0.01330730       0.00567225
O       12.56990000      14.57010000      24.35550000       0.07112550       0.03803620       0.00893513
H       14.21380000      14.35310000      25.28451000      -0.02814810       0.00867497      -0.01801410
H       11.75120000      13.10470000      24.77500000      -0.03704900      -0.05068460       0.00795132
O        1.60966000      11.28500000       1.33280000       0.01978020       0.01766920       0.03288640
H        3.13697000      11.86460000       2.24383000      -0.02158010       0.01518410       0.00476692
H        2.63934000      10.40800000       0.18798100      -0.00116920      -0.02986700      -0.03768450
O        8.47799000       5.18953000       9.64777000       0.00178461      -0.01263600       0.01518010
H        8.59720000       6.44133000      11.05150000      -0.00634501      -0.00224596      -0.04507670
H        8.39991000       5.66442000       7.87116000       0.00292331       0.02388080       0.02946540
O       19.44930000       9.55913000      12.29930000       0.00156144      -0.01677190       0.01103370
H       19.14950000      11.31160000      12.53050000      -0.00314248       0.01490180      -0.00701678
H       19.77020000       9.16731000      10.57080000       0.00145778       0.00642685      -0.00203778
O       13.16900000       2.99451000      10.39170000       0.07473420       0.00097953       0.08689420
H       11.60020000       3.73546000       9.95509000      -0.02473800       0.01815550       0.01140550
H       13.84030000       3.38315000      12.68380000      -0.03920340      -0.01822750      -0.09808690
O       12.66030000      15.19260000      13.84030000       0.00339678       0.01548710      -0.01162920
H       14.21670000      15.91160000      12.84600000      -0.05853140      -0.01295390       0.02959560
H       10.98490000      16.11430000      13.84070000       0.05527390      -0.00762693      -0.01772040
O       24.46680000       9.36199000      15.26420000      -0.03911990       0.06524800      -0.05113310
H       22.64570000       9.28301000      14.94020000       0.00020543      -0.03684570       0.01959220
H       24.18820000      11.00140000      14.14100000       0.04621710      -0.02659510       0.03204760
O       11.12770000       2.11493000      24.80160000      -0.06977670      -0.02053350      -0.01155960
H       10.65640000       2.33689000      23.03770000       0.00448356       0.00085702       0.00803062
H       12.79970000       2.34198000      25.06807000       0.06864520       0.01621950       0.00417589
O        9.12627000      18.00460000       1.62034000      -0.01731730       0.02608100      -0.00077066
H       10.61950000      17.03690000       1.74470000       0.01371300      -0.01027410      -0.01166160
H        9.52238000      19.52290000       0.56781600      -0.00093844      -0.01891890       0.00860458
O       17.78290000       6.49627000      24.56690000       0.04964900       0.01154020      -0.03147130
H       19.43090000       6.58051000      23.60820000      -0.02124660       0.03363350       0.00983097
H       18.00980000       4.74816000      24.52980000      -0.02244780      -0.04670970       0.01936560
O       19.51230000      12.21200000      23.41560000       0.02129950       0.06330930      -0.10352900
H       19.13110000      13.50970000      21.63210000       0.00576676      -0.05753120       0.08505000
H       21.36140000      12.15300000      22.95460000      -0.02985760      -0.00305454       0.02101170
O        2.94841000      16.51560000       8.12941000      -0.05434670      -0.01817590      -0.05656920
H        2.41285000      18.19310000       8.37143000       0.00375973       0.01799050       0.00730788
H        4.23102000      16.03860000       9.14953000       0.05266360      -0.00094696       0.04372730
O        0.31679200      22.98450000       9.50752000       0.02445550       0.01713730      -0.03527380
H       25.09912600      22.47890000       7.86550000      -0.00216712      -0.00015006       0.01535330
H        1.81652000      23.99450000       8.93080000      -0.02078420      -0.01811370       0.01442380
O       24.73250000      10.50640000       6.52238000      -0.03096320      -0.00984446       0.07216350
H        0.05097400      10.99060000       5.08514000       0.04041030       0.00001413      -0.07605500
H       24.83250000      12.10490000       7.37597000      -0.01056750       0.00390213       0.01321840
O        5.43099000      14.24980000       3.63938000      -0.01793340      -0.08109790      -0.01305330
H        4.63049000      14.84660000       5.06807000      -0.01479930       0.03543940       0.03384400
H        6.48979000      15.29040000       2.77183000       0.03118370       0.05171460      -0.02284110
O       17.87530000       3.02848000       6.75017000      -0.10369300       0.05049440       0.01758920
H       16.05500000       3.86193000       8.02335000       0.07568910      -0.04743990      -0.04416590
H       19.23360000       2.88214000       7.87778000       0.02290450      -0.00285248       0.03089630
O       24.32380000       5.64414000       3.27820000       0.03618920      -0.03625200      -0.03392030
H       23.45810000       4.59488000       4.38349000      -0.01515380      -0.02223760       0.02410230
H       23.64160000       7.20317000       3.52021000      -0.01954880       0.05549230       0.00627514
O       23.19110000      23.25400000      14.27820000       0.03500670      -0.02408980      -0.01541570
H       22.15860000      23.86740000      15.55070000      -0.03084340       0.02307440       0.02439370
H       23.46350000      24.55910000      13.06040000      -0.00510233       0.00111883      -0.00461689
O       10.89210000      22.11140000      24.75810000       0.08213310       0.09357490       0.02457890
H       12.78460000      22.01820000      25.08940000      -0.03381850      -0.03221090      -0.00887296
H       11.30020000      24.15930000      25.11800000      -0.04896870      -0.05895130      -0.01935530
O       24.66410000      14.10750000      12.31860000       0.01299700       0.05918410       0.04775540
H       23.86840000      14.28130000      10.76920000      -0.01949470       0.00327036      -0.03484210
H       24.53900000      16.03210000      13.06230000       0.00503012      -0.07072000      -0.00765223
O       23.30570000       6.32413000      22.12870000       0.01889110      -0.01895210      -0.02163940
H       23.97110000       5.59634000      20.39640000      -0.00434338       0.03373220       0.06476160
H       24.62150000       6.89797000      23.36430000      -0.01635660      -0.01571450      -0.04155780
O       10.64800000      19.01790000       6.52290000       0.01114020       0.00706713       0.00528705
H       10.83950000      19.33980000       4.76670000      -0.00925892      -0.01204510      -0.01819970
H       11.01100000      20.69470000       7.12939000       0.00409723       0.00561595       0.01984150
O       21.86550000       0.56848000      24.02000000      -0.01457060      -0.05722360      -0.01220180
H       20.80350000       0.86177600      25.41142000      -0.02676180      -0.00848356       0.01522860
H       22.68680000       2.05949000      23.96630000       0.04423970       0.06711380      -0.01377010
O        4.98276000      21.28170000       4.85147000       0.06087280       0.01214580      -0.01473630
H        6.32111000      22.56560000       5.09869000      -0.03550870       0.00730263       0.01200030
H        6.32517000      20.25090000       4.07870000      -0.02746730      -0.01988570      -0.00026399
O        3.26229000       2.01146000       1.75368000      -0.00221182      -0.03795580      -0.05799660
H        1.91634000       3.14239000       1.95363000       0.00075784       0.01985290       0.03326170
H        4.76830000       1.62853000       2.62133000      -0.00349259       0.02005390       0.02718650
O        2.45546000       5.94261000      18.02040000      -0.05765550       0.05595800      -0.07478890
H        1.79669000       7.87949000      17.20480000       0.03421030      -0.08652060       0.04940770
H        3.49804000       5.83554000      19.43940000       0.01609880       0.02590410       0.02360570
O        3.89326000       7.27291000      23.67890000      -0.00535939       0.00755857      -0.00215446
H        5.64097000       7.10743000      23.92010000       0.04009310       0.02067450      -0.01732130
H        3.62748000       6.00165000      24.87640000      -0.03139800      -0.02821430       0.02096410
O       24.29600000      17.92840000      15.75310000      -0.00656855       0.00878661      -0.00419336
H       24.16250000      19.63900000      15.10450000       0.00270635       0.00056481       0.00481126
H        0.30262200      17.78280000      16.83490000       0.00033455      -0.00388812      -0.00582575
O       17.31700000       0.91402100       1.52128000       0.04082080       0.01061550       0.04581280
H       17.29270000      24.63370000       2.02340000      -0.00979732      -0.00893592      -0.00818101
H       18.37970000       1.51611000       3.03918000      -0.03908420      -0.00065798      -0.03112200
