192
TotEnergy=-1103.46395000 cutoff=-1.00000000 nneightol=1.20000000 pbc="T T T" Lattice="24.38539000       0.00000000       0.00000000      -0.00000100      24.38539000       0.00000000      -0.00000100      -0.00000100      24.38539000" Properties=species:S:1:pos:R:3:force:R:3:Z:I:1
O              20.51370000      1.76605000    -32.10940000      0.19788500      0.21848500     -0.08035400       8
H              21.27530000      2.30823000    -30.45310000      0.00185537      0.01243770     -0.02123540       1
H              19.62380000      0.73276600    -31.48560000     -0.20415500     -0.22842500      0.10541300       1
O              45.16140000     44.80130000     10.15530000     -0.16426600      0.08076470      0.08697390       8
H              46.29710000     44.35740000      9.10871000      0.11630900     -0.04666710     -0.11457500       1
H              43.73330000     45.75100000      9.17656000      0.05279780     -0.03401180      0.03206910       1
O              13.55560000     -1.08712000     20.34370000     -0.00945038     -0.00685226     -0.00740400       8
H              12.24170000     -2.29178000     19.72760000      0.00916298      0.01894180      0.01268670       1
H              14.93570000     -1.42264000     19.20100000      0.00576581     -0.00074595     -0.00671898       1
O              -3.81223000     -9.29611000     -0.05374000      0.00918379      0.01893590      0.03788030       8
H              -3.34565000     -7.49193000     -0.71901800     -0.01243590     -0.03811850      0.02044750       1
H              -3.80014000     -9.45427000      1.87690000      0.00611516      0.02019260     -0.04817240       1
O               5.05220000     33.47210000     20.66580000      0.04410450      0.00241336     -0.06998580       8
H               5.60451000     34.74900000     19.28300000     -0.01379920     -0.02396730      0.04045000       1
H               6.15067000     32.02610000     20.04170000     -0.02571950      0.02730500      0.02012800       1
O              -1.76038000     12.67200000      9.65629000      0.00701407      0.08669540      0.04062790       8
H              -1.18189000     11.55130000      8.46327000      0.02759630     -0.03724510     -0.03515420       1
H              -0.47645400     14.12930000      9.83895000     -0.02253790     -0.03408280     -0.00978304       1
O              38.22330000     23.19410000     12.04780000     -0.01005230     -0.01150060      0.04924550       8
H              38.72700000     23.03110000     10.35420000      0.01558320     -0.00848081     -0.02801850       1
H              37.78630000     21.51470000     12.72590000     -0.00583179      0.00676013     -0.01038200       1
O              -0.60300400    -24.21250000     13.13380000      0.00620111     -0.00415234     -0.00919386       8
H              -1.44203000    -25.38540000     11.94780000      0.00809442      0.01338220      0.02106050       1
H              -1.68204000    -23.69360000     14.54000000     -0.01471800     -0.00886420     -0.01035980       1
O              32.61730000    -36.43650000     17.41840000      0.04187180     -0.01412160      0.04999550       8
H              34.04090000    -37.75250000     17.74120000     -0.03896840      0.02832500     -0.01400370       1
H              32.91410000    -35.26630000     19.00760000     -0.01138680     -0.02283200     -0.04410880       1
O               8.73051000    -26.67690000    -22.19080000      0.03221720     -0.08391040      0.00228435       8
H              10.47000000    -26.26180000    -22.47190000      0.01512180     -0.00319484     -0.01249350       1
H               8.03504000    -25.14520000    -22.17330000     -0.04409390      0.09303560      0.01090030       1
O             -12.15400000      2.71974000      6.15380000      0.01774190     -0.00636648      0.00716200       8
H             -13.88390000      2.52445000      5.69173000     -0.01075240      0.00339576     -0.01324020       1
H             -11.27740000      3.48860000      4.72385000     -0.00632521     -0.00214740      0.00191541       1
O             -10.89670000     33.83110000     51.50120000     -0.03392610     -0.00126628      0.02473150       8
H              -9.98897000     34.69500000     50.23350000      0.02149680      0.00928851     -0.02040820       1
H             -12.42070000     34.85620000     51.78470000      0.01038210     -0.01343410     -0.00875335       1
O              15.99900000    -30.23850000    -19.89730000      0.01274530     -0.05292040      0.01553900       8
H              17.31070000    -31.71990000    -19.62060000     -0.00686799      0.04302150     -0.00704319       1
H              14.68690000    -31.33450000    -19.24530000     -0.01295010      0.01627510     -0.00415043       1
O              26.10230000     17.22130000     34.11390000      0.03808300     -0.01398130     -0.00280479       8
H              27.62950000     17.09700000     33.03120000     -0.02737210      0.00508622      0.00641388       1
H              26.96280000     17.00590000     35.74580000     -0.01853260      0.00636418     -0.00114261       1
O              -2.13801000      3.70720000     -3.31333000     -0.03421450      0.06429590     -0.07443230       8
H              -0.61013800      4.38914000     -4.08920000     -0.00551622      0.01711570     -0.00427804       1
H              -1.48176000      2.61253000     -2.25611000      0.04086320     -0.08262270      0.08391390       1
O             -27.80320000     20.51990000     28.67610000     -0.03590780     -0.00853569     -0.00932552       8
H             -29.67520000     20.60280000     28.49610000      0.03428720     -0.00032304      0.00387569       1
H             -27.27250000     22.10490000     29.34140000      0.00741671      0.01338190      0.00148774       1
O             -31.68210000     11.40250000     23.60300000      0.05104880      0.02207210      0.05433330       8
H             -32.87820000     12.33790000     22.65610000      0.00014071      0.01377390     -0.01660300       1
H             -30.33740000     12.69550000     24.47090000     -0.05345060     -0.03451480     -0.04798430       1
O             -15.69930000     61.05240000    -21.51090000      0.09382330      0.03912620     -0.01675900       8
H             -15.62030000     60.97580000    -19.76830000      0.00301186      0.00254149      0.05803070       1
H             -17.17730000     60.39310000    -21.90440000     -0.10404900     -0.04732760     -0.03547330       1
O              65.47260000     21.95340000     40.88820000      0.01154600     -0.01091080     -0.07983130       8
H              64.81810000     22.51070000     39.01450000      0.02325040     -0.01545950      0.06987060       1
H              66.63120000     20.46360000     40.49720000     -0.02712130      0.02992800      0.01125530       1
O              55.92190000    -21.76130000      3.48718000      0.03334370     -0.00421645     -0.01745910       8
H              54.79660000    -22.25690000      4.80855000     -0.02065380      0.00144903      0.00723630       1
H              55.23690000    -20.61120000      2.24691000     -0.01017740      0.00116276      0.00801496       1
O              32.70320000     17.49060000    -13.98580000     -0.01201930      0.05148580      0.01558730       8
H              32.97800000     15.83220000    -14.33820000      0.00780111     -0.06511320     -0.02683230       1
H              33.27680000     17.60290000    -12.28150000      0.00820709      0.01228710      0.01073430       1
O             -10.53040000      7.06232000     62.29040000     -0.00933802     -0.03481560     -0.00742018       8
H             -11.44570000      5.57043000     61.54390000      0.01163210      0.02063920      0.01055720       1
H              -8.74845000      6.54000000     62.31570000     -0.01090830      0.00462745     -0.00318322       1
O               6.60720000      4.28306000     -4.88625000      0.00171285      0.00678918      0.00964513       8
H               8.24467000      3.93604000     -4.21926000      0.01517930      0.00151709      0.01184620       1
H               6.35508000      3.01639000     -6.11149000     -0.01313200     -0.01301180     -0.01765910       1
O              43.69250000      6.70240000     24.38100000      0.00969593      0.01329110     -0.02697200       8
H              43.49220000      8.38093000     23.53530000     -0.00984956     -0.02069660      0.01853780       1
H              44.58060000      5.73063000     23.06350000     -0.00206407      0.00336814      0.01450680       1
O               0.77136000     57.92210000     30.58680000      0.02968640      0.01932430      0.02950370       8
H              -0.81658500     57.22590000     30.15700000     -0.01251830     -0.00525122     -0.02218500       1
H               1.91287000     58.53560000     29.26750000     -0.01995400     -0.01371880     -0.00770487       1
O               8.79815000     37.01140000      8.08212000      0.01985910      0.01749250     -0.01251600       8
H               7.53848000     36.09150000      8.84384000     -0.06485730     -0.02427840      0.00869607       1
H              10.02930000     36.24360000      9.16510000      0.04335140      0.00576450      0.00263972       1
O             -14.97730000     20.89810000     18.67030000      0.07460980     -0.10072300      0.04827340       8
H             -16.44460000     21.67220000     18.54170000     -0.09702420      0.05569370     -0.01625870       1
H             -15.40160000     19.36780000     19.84020000      0.02356450      0.03953160     -0.03901460       1
O              28.00140000     34.62120000     50.17400000      0.03990800     -0.03050070      0.02855870       8
H              26.89970000     35.45910000     49.09590000     -0.02597490      0.02321480     -0.02773570       1
H              28.64500000     33.19720000     49.15360000     -0.01310320      0.01121220      0.01307580       1
O              12.22940000     32.84690000     18.34310000     -0.03815770     -0.07657770      0.00943667       8
H              12.43610000     31.97500000     16.64830000      0.00394287      0.02022010      0.02735360       1
H              11.40520000     31.34250000     19.47360000      0.03655840      0.05640600     -0.03596840       1
O               0.74655100    -23.52240000     24.83420000     -0.04195600      0.04920190      0.09900890       8
H               0.14365800    -23.06170000     26.94160000      0.02107710     -0.02492440     -0.08637930       1
H               2.17631000    -24.58580000     25.06430000      0.00566337     -0.01828390     -0.00370394       1
O               3.99056000     17.12080000     -3.26493000      0.10721100      0.05435830     -0.04069510       8
H               5.92527000     16.66910000     -3.50112000     -0.06916000      0.01232510      0.01070330       1
H               3.30798000     15.71110000     -2.60893000     -0.03733300     -0.07393500      0.03090200       1
O               3.21473000      2.53675000     15.70950000     -0.04697680     -0.03774540     -0.05033100       8
H               1.72229000      1.60667000     14.40910000      0.05298480      0.03201080      0.03846170       1
H               2.33402000      3.89380000     16.57850000     -0.00690841      0.00128420     -0.00317101       1
O             -37.33080000     52.59620000    -27.05810000     -0.00120922      0.02571700      0.00608388       8
H             -36.77070000     51.20280000    -28.03470000      0.01467150     -0.01834770     -0.00298139       1
H             -35.96240000     53.04990000    -25.87620000     -0.01360140     -0.00776569     -0.00582932       1
O               4.32335000     49.55030000    -17.22640000      0.00132397     -0.01303530      0.02983930       8
H               4.42839000     50.75490000    -15.77330000      0.00752822     -0.02461540     -0.01202190       1
H               5.05701000     47.74320000    -16.78190000     -0.01139790      0.04183320     -0.00921524       1
O             -32.46830000     35.09510000      6.61939000     -0.01223650     -0.02750050     -0.03324200       8
H             -33.70990000     34.32510000      5.19762000      0.03104180      0.02543630      0.02936540       1
H             -30.89400000     34.08090000      6.20964000     -0.02765630      0.00976894      0.01160480       1
O              20.81930000     35.48540000     14.00370000     -0.03086440      0.04661060     -0.03465220       8
H              19.10420000     36.34640000     14.20340000      0.04559180     -0.02191680     -0.00305612       1
H              21.69340000     36.48930000     12.47740000     -0.02756650     -0.03637690      0.03163510       1
O             -13.42170000    -21.38600000     11.38530000     -0.08332510      0.07109250      0.11710000       8
H             -12.87370000    -21.33400000      9.86927000      0.05048960      0.01536680     -0.16119400       1
H             -12.67280000    -22.78450000     11.96240000      0.03622180     -0.08175100      0.04267960       1
O             -47.75360000      6.36556000     18.14700000      0.03517910     -0.06976390      0.02001830       8
H             -48.61490000      7.71144000     17.51680000     -0.03302490      0.06088620     -0.02096420       1
H             -46.14580000      7.02784000     18.67330000      0.00138121      0.01074860      0.01263700       1
O             -19.74920000    -15.38720000     34.43560000     -0.06305520     -0.04162260     -0.00377361       8
H             -19.87050000    -17.26610000     34.85750000      0.02205300      0.03242650     -0.00648306       1
H             -21.52370000    -15.26370000     33.63560000      0.04593150      0.00711438      0.00976751       1
O              19.28530000     15.06470000     30.00890000      0.08591540      0.00762794      0.02825620       8
H              20.96800000     14.98990000     31.07490000     -0.04761560      0.01929710     -0.03761470       1
H              18.61780000     13.66130000     30.84440000     -0.03841550     -0.03612840      0.00516126       1
O             -20.26850000     -2.31848000     42.00180000      0.01546460     -0.03147010      0.02065640       8
H             -20.38550000     -2.15411000     43.83410000     -0.00764921      0.00125604     -0.01026280       1
H             -21.11580000     -0.97956100     41.19720000     -0.00684252      0.02743160     -0.00311599       1
O              43.76900000      3.27742000     32.79830000      0.03779600     -0.07553150     -0.19678500       8
H              43.53460000      3.85964000     34.26010000     -0.03807230      0.05940780      0.17283500       1
H              42.73610000      1.88507000     32.18180000      0.00069551      0.01304560      0.02110430       1
O              -8.74883000    -34.09350000     -9.91088000     -0.04217190     -0.02492220     -0.01643020       8
H              -7.11091000    -33.53030000    -10.17140000      0.03952950      0.02521370     -0.00291219       1
H              -9.36375000    -34.72650000    -11.55020000      0.00078495     -0.00292506      0.01653640       1
O              54.54640000    -20.40570000    -12.93600000     -0.03165350      0.00221723      0.03753370       8
H              56.33250000    -20.59920000    -12.99910000      0.01564260     -0.00297262      0.00207012       1
H              54.00330000    -20.57040000    -11.06210000      0.00712299     -0.00505984     -0.04415540       1
O              15.85250000     -1.29767000      7.41126000     -0.02667570      0.04996220      0.00471737       8
H              14.28940000     -0.40742800      6.71440000      0.03320080     -0.01809720      0.00513878       1
H              16.04510000     -2.94733000      6.78499000     -0.00915897     -0.02632100     -0.02257410       1
O             -38.69070000     -8.78113000     44.93680000      0.02194910     -0.00418634      0.07104700       8
H             -37.32510000     -9.95464000     44.41290000     -0.00052082      0.02418260      0.00225702       1
H             -38.38260000     -8.57635000     47.00000000     -0.02292660      0.00031587     -0.06395790       1
O               3.92973000    -12.22500000    -10.14200000     -0.07948010     -0.07079760     -0.07477930       8
H               5.31801000    -11.86350000     -9.26529000      0.08452430      0.01454890      0.04805620       1
H               4.21634000    -13.93250000    -11.13210000     -0.00204516      0.05788530      0.02089940       1
O              20.08800000     17.41930000     14.81690000      0.01919540      0.03571900     -0.04441290       8
H              20.55170000     18.39020000     13.16630000     -0.01532150     -0.02618710      0.04168080       1
H              21.67610000     17.50970000     15.72430000     -0.00171867     -0.00464593     -0.00209643       1
O              11.93160000     18.55550000     -9.87677000     -0.01344490      0.02299070     -0.02112640       8
H              12.90810000     17.05830000     -9.45510000     -0.00599688      0.01432650      0.01767910       1
H              10.99650000     19.61340000     -8.64889000      0.01919300     -0.03328870      0.00378577       1
O              23.66500000     49.55490000     30.50630000      0.04391090      0.00751039      0.01805230       8
H              22.87920000     50.46590000     31.88460000     -0.00949997      0.00180081     -0.00907409       1
H              25.55970000     49.65040000     31.08460000     -0.03376580     -0.01282260     -0.01972360       1
O              -4.42491000      7.70415000      5.23275000      0.01502860     -0.06725830      0.00896043       8
H              -4.53791000      5.82758000      5.75412000     -0.00224602      0.04768590      0.01185250       1
H              -4.24343000      7.33601000      3.46452000     -0.00305247      0.01478360     -0.02164350       1
O              13.71190000    -26.35060000     25.18040000     -0.05054680      0.19556800     -0.08678560       8
H              14.01210000    -27.66750000     26.00120000      0.06050920     -0.16588900      0.07847740       1
H              14.33050000    -25.76600000     23.50350000     -0.00959906     -0.03776230      0.00896304       1
O              -2.85110000     19.68730000     47.00720000      0.06065470     -0.00279646     -0.11591500       8
H              -1.31531000     20.54950000     45.98930000     -0.06036870     -0.03431050      0.05081630       1
H              -3.03424000     20.39850000     48.53970000      0.00205395      0.04405520      0.07169610       1
O              33.51170000     41.07450000      0.99973700      0.00831137     -0.16278900     -0.07390860       8
H              33.43050000     42.46920000      1.80921000     -0.01157990      0.12975300      0.08099970       1
H              33.17310000     39.39720000      1.98206000      0.00694207      0.03677120     -0.01319900       1
O              26.03680000     17.74310000    -33.50070000      0.03311880      0.05655560      0.02777860       8
H              26.40490000     16.24080000    -32.55640000      0.00379532      0.00203767      0.00288472       1
H              27.11890000     19.27410000    -32.60990000     -0.03894030     -0.05825910     -0.02664550       1
O             -20.48690000     45.99040000     -0.79345500      0.04207470      0.01226890      0.02113940       8
H             -20.44960000     44.18430000     -1.12820000     -0.00002055     -0.00161220     -0.00213753       1
H             -18.92440000     46.33830000      0.26152400     -0.03118270     -0.01634660     -0.02705560       1
O               6.51435000    -28.03320000     31.38830000      0.06393300     -0.00175808     -0.02434420       8
H               7.46304000    -29.08500000     32.55540000     -0.02066840     -0.00989695      0.02627010       1
H               8.12721000    -27.79770000     30.35830000     -0.04976160      0.01177330     -0.00045134       1
O               3.96608000     29.60730000     -0.20742000      0.00244536     -0.07050300     -0.02545490       8
H               5.03745000     28.93030000     -1.80280000     -0.04959150      0.01765640      0.05575500       1
H               2.65279000     28.15320000      0.40353900      0.04673790      0.04474860     -0.03431950       1
O             -11.43310000    -13.05030000     10.74620000      0.00868487     -0.03842810     -0.01084010       8
H             -11.71800000    -14.70600000     11.80060000      0.02638770      0.04513380     -0.03543380       1
H             -10.29190000    -13.39340000      9.15755000     -0.02070100     -0.00267983      0.04472750       1
O              -5.13098000      5.77114000     13.03240000     -0.01891970     -0.13782200      0.00612971       8
H              -4.87687000      7.33414000     13.39570000      0.02576070      0.15789200      0.01174470       1
H              -4.55629000      5.09517000     14.65740000     -0.00723906     -0.01904700     -0.01733020       1
O              25.06030000    -11.48210000     -1.92671000      0.00837116     -0.02625400     -0.03338860       8
H              24.52940000    -12.42590000     -3.46894000      0.01970050      0.00901972      0.01315830       1
H              23.58400000    -10.53360000     -1.67727000     -0.02497380      0.01674390      0.01907090       1
O              24.35420000     11.22080000     41.74610000     -0.02269000     -0.00315576      0.00136217       8
H              22.94090000     11.32880000     40.50710000      0.00569172      0.00125034      0.01352740       1
H              25.83050000     11.41090000     40.71630000      0.01555810      0.00761216     -0.00673311       1
O              14.91750000     27.85370000     50.25960000      0.00050199      0.08252680      0.01478100       8
H              16.49620000     28.88260000     50.10090000     -0.01845060     -0.03307650     -0.00754422       1
H              14.69680000     26.15030000     49.98860000      0.01983850     -0.04684450     -0.00695845       1
O              -9.98212000     13.05610000     19.30330000     -0.01515440      0.07670190      0.12384900       8
H              -8.99658000     13.48250000     18.03780000      0.07265420      0.05356770     -0.08114010       1
H             -10.54720000     11.68330000     18.62650000     -0.06026290     -0.13401100     -0.03966290       1
