192
Lattice="24.3154 0.0 0.0 0.0 24.3154 0.0 0.0 0.0 24.3154" Properties=species:S:1:pos:R:3:force:R:3 TotEnergy=-1103.48393 cutoff=-1.0 nneightol=1.2 pbc="T T T"
O       22.47690000       2.22460000      18.43020000       0.01028550       0.01135180       0.00975698
H       23.48490000       2.91867000      19.81530000      -0.01071070      -0.00733524      -0.00238672
H       22.59410000       0.44110400      18.69780000      -0.00766008      -0.00551234       0.00225830
O        2.45740000      21.27770000       3.87607000       0.08117110      -0.03450110       0.01421930
H        4.36520000      20.55960000       4.15325000      -0.06312980       0.03467590       0.00874590
H        2.37370000      20.68500000       2.13812000      -0.01762890       0.01229350      -0.00344605
O       13.05790000      23.71875100      14.41510000       0.01724310      -0.05663450       0.00123190
H       14.92490000      23.23418000      14.06080000      -0.06044450       0.00863369       0.00750469
H       12.01260000      21.99973000      14.79560000       0.03655850       0.04769480      -0.01284110
O       18.88911000      14.79130000       0.38918900       0.00918073      -0.05294910       0.00615772
H       19.57658000      14.76881000      23.01811000      -0.00040132       0.01475090      -0.01449990
H       18.04624000      16.22426000       0.93199300      -0.01613350       0.04377910      -0.00055417
O        8.85098000       5.84780000      20.73950000       0.04553650       0.01621120       0.04696050
H        8.93150000       6.40030000      22.68510000       0.01270440      -0.00762029      -0.08083670
H       10.60310000       6.12420000      19.71510000      -0.05075450      -0.00783381       0.03470120
O       20.98038000      12.24540000      12.28060000       0.01831820       0.00149320      -0.05971880
H       20.60343000      11.21510000      10.49410000       0.01300470       0.02620440       0.05956340
H       22.40487000      13.52130000      11.96620000      -0.03155450      -0.03106980       0.00137192
O       21.92480000       2.02330000      11.13510000      -0.07076070      -0.04270140      -0.06182260
H       23.53280000       2.51120000      11.42640000       0.06847440       0.01792100       0.00477751
H       21.82310000       1.26820000       9.30672000       0.00887256       0.02167940       0.05718120
O       22.61985000      20.13010000      11.10460000      -0.00032069      -0.00074231      -0.00483344
H       23.26088000      18.46420000      10.72850000       0.00756921      -0.00426297       0.00543323
H       22.65785000      20.93170000       9.42696000       0.00069197       0.00763708       0.00692460
O        4.45910000      13.72770000      19.41240000       0.04095430      -0.00240814       0.00559030
H        6.18760000      13.38180000      20.38730000      -0.04789280       0.01256080      -0.01988710
H        4.78530000      15.44630000      18.87240000      -0.00909254      -0.00158403       0.00390069
O        9.04197000      22.48780000      20.88710000       0.03344500      -0.01381740      -0.01315340
H       10.93310000      22.49790000      20.76850000      -0.01308440       0.02562150      -0.01177170
H        9.24575000      21.09430000      22.02410000      -0.02948570      -0.01480120       0.01541290
O       12.47990000       2.43979000       5.53484000      -0.01242590      -0.05481550       0.01074940
H       10.62790000       2.16226000       5.65196000       0.01294940      -0.01591280      -0.02406810
H       12.46400000       4.13136000       5.76648000       0.01925450       0.07205670       0.00393461
O       13.00320000       7.18410000       0.73130000      -0.01352090       0.08120370       0.06302860
H       13.52920000       6.10990000      23.86500000       0.03033940      -0.07284460      -0.06070880
H       13.80400000       8.82690000       0.21800000      -0.01583550      -0.00822808       0.00792669
O       15.02610000      18.83480000       9.18810000      -0.01389720      -0.03578220       0.00782097
H       15.81280000      17.13260000       8.70440000      -0.02320520       0.02848590      -0.00109346
H       13.14450000      18.54630000       9.57820000       0.03298590       0.00339928      -0.01295760
O        1.02250000      15.63970000      10.44410000      -0.05540570       0.05883590       0.00752951
H        1.15770000      14.44570000       9.23360000      -0.00895494      -0.04687050      -0.07611620
H        2.20250000      14.98180000      11.47210000       0.06157170      -0.01574120       0.07094500
O        0.57667600       2.54556000      23.64215000       0.02700030       0.00696483       0.01305180
H        1.93860000       3.65174000       0.03462000      -0.01580370      -0.01546210      -0.00847341
H        1.18210000       0.85044600      24.05890900      -0.00487938       0.00958926      -0.00524446
O       22.50520000      22.73940000       6.60350000      -0.09507640      -0.01450850       0.03794560
H       23.86940000      23.00540000       5.56040000       0.03185690      -0.00693966      -0.04207080
H       20.83310000      22.16360000       5.81320000       0.05323480       0.02002040       0.00816564
O       14.22420000      11.83410000      24.02740000       0.03781310       0.03918700      -0.03002710
H       13.88600000      11.99060000      22.07790000       0.00944570       0.00497424       0.05259700
H       15.75600000      13.03340000       0.25600000      -0.04038300      -0.03935580      -0.03005350
O        6.04340000      13.32870000       4.83410000       0.04419960      -0.00699578       0.06232360
H        6.85130000      13.38170000       6.70660000      -0.03178100      -0.00046559      -0.05534310
H        6.85090000      11.79030000       4.21000000      -0.01026470       0.00873969      -0.00236861
O       17.72460000      19.95170000      13.18440000       0.01830380       0.01043510       0.04590180
H       19.50370000      19.97340000      12.84000000       0.01524850       0.01013500      -0.00033834
H       17.10960000      19.31580000      11.66290000      -0.03505010      -0.00659978      -0.04066390
O        8.04980000       1.33750000       4.21585000      -0.02762530       0.01082410      -0.02881210
H        6.68100000       1.96880000       5.27355000       0.00262647      -0.00501390      -0.01332100
H        7.52240000       1.59310000       2.18895000       0.01476780      -0.00706866       0.03755480
O        9.85320000      18.38880000       9.53470000      -0.03499030      -0.08319800       0.06376290
H        9.17380000      16.45440000       9.64850000       0.02168570       0.06069210      -0.01871620
H        9.54580000      18.53050000      11.46460000       0.01474310       0.02112590      -0.04141370
O       13.17720000       6.80864000      12.19540000       0.06662100      -0.06481660      -0.04695280
H       12.32360000       5.18500000      11.60710000       0.00182526       0.03168410       0.01485540
H       15.08799000       6.22251000      11.59180000      -0.06869130       0.02792900       0.03713760
O        7.17485000       1.59355000      23.69456900      -0.00721439       0.09102910      -0.02586300
H        7.50141000       0.20245500      22.54692000       0.01295780      -0.00367960      -0.00387098
H        7.44887000       3.35496000      22.54388000      -0.00335684      -0.07968870       0.04225830
O       20.27370000       5.21354000      23.90270000       0.00282103       0.00489329      -0.02260120
H       19.45260000       5.73026000       1.09570000       0.00412634       0.00027058       0.01343980
H       22.01010000       4.67622000      24.15460000      -0.01097250      -0.00583862       0.00952996
O       20.29363000      12.46750000       4.51820000       0.01101550      -0.02717450       0.05440530
H       20.33494000      12.96710000       2.79550000       0.01593800       0.01188940      -0.01502680
H       21.90125000      11.98470000       5.42330000      -0.02227350       0.01662420      -0.03805390
O        7.96301000      13.07000000       9.87388000      -0.02860300      -0.00389443       0.03136190
H        7.38983000      12.35860000      11.55220000      -0.00731674       0.02193960      -0.02935850
H        9.61590000      12.42080000       9.82058000       0.03945880      -0.01147700      -0.00570298
O        5.53910000      19.91720000      17.66700000       0.03516950      -0.03008190       0.01096900
H        4.13240000      20.48580000      16.78330000      -0.02918740       0.02096060      -0.00903672
H        6.09390000      20.98150000      19.03740000      -0.00298114       0.00577009      -0.00935470
O        8.42720000       8.97380000       1.43890000      -0.00114978       0.08825260      -0.01598200
H        9.72880000       7.87110000       1.57120000       0.06556940      -0.03952800       0.00608921
H        6.99150000       8.10130000       1.70960000      -0.07385930      -0.04305750       0.01560890
O       11.97230000      11.61220000      19.19290000       0.02794770      -0.00787477      -0.03182850
H       12.50280000      12.60090000      17.56780000      -0.01213390      -0.03007250       0.04588880
H       12.52230000       9.74960000      19.11190000      -0.01245630       0.04269900      -0.01547020
O        2.59620000      21.09070000      23.37970000       0.04414650       0.03282390       0.06798560
H        1.44464000      20.84900000      22.15950000      -0.04748670      -0.02870000      -0.06925930
H        4.24282000      20.37500000      23.22130000       0.00298641      -0.00890820      -0.01481600
O        1.23930000      12.13370000       6.15861000       0.03272930       0.05688330      -0.00643128
H        1.67160000      10.51840000       6.76582000       0.01013440      -0.02218020       0.00067815
H        2.94336000      13.12880000       5.74832000      -0.04595750      -0.04154530       0.00385888
O        2.04778000       3.50801000      15.48370000       0.01780450       0.01227190       0.03177320
H        0.39044200       3.29125000      16.23930000      -0.00777720      -0.00372586      -0.00518067
H        2.95255000       4.25738000      17.03310000      -0.00827164      -0.00304787      -0.03444440
O       13.25900000       6.60410000      17.80090000       0.01635560      -0.04518490       0.02349960
H       13.04510000       6.22840000      15.94980000       0.01118270       0.00107063       0.03127630
H       14.15860000       5.13270000      18.91210000      -0.03227600       0.04541000      -0.04355880
O        2.87431000       2.30740000       6.57320000       0.00540493       0.07396110       0.07404140
H        3.49211000       1.81170000       8.29840000      -0.00683750       0.00613278      -0.01662990
H        2.95717000       0.98890000       5.54340000       0.00207431      -0.08231180      -0.05925280
O       12.33340000      14.62500000       3.59249000      -0.02483640       0.00870755       0.04216100
H       12.09980000      13.32530000       2.37937000       0.00368587      -0.01243000      -0.01982460
H       11.09900000      14.23620000       4.95325000       0.01872690       0.01099550      -0.02408690
O       22.22410000       8.49440000      15.46950000      -0.12782100       0.08368280       0.01832130
H       23.74700000       8.05390000      14.98720000       0.10869900      -0.02610520      -0.03718850
H       21.68120000      10.20110000      14.41320000       0.02353390      -0.05174290       0.02219110
O       10.10300000       2.00570000      10.96690000      -0.00119884      -0.01951720       0.10916400
H       10.46190000       2.14160000       9.29894000       0.02588980      -0.01407110      -0.05648910
H       11.11300000       0.66500000      12.14400000      -0.01329610       0.03862830      -0.04380220
O        4.38030000       6.67943000      18.82880000       0.01784040      -0.03268990      -0.04005390
H        3.46520000       7.21436000      20.20770000      -0.02593840       0.01840050       0.03749780
H        5.74680000       5.68306000      19.54230000       0.00490318       0.01375590      -0.00458083
O        2.74080000       7.91510000      12.20660000       0.00854309      -0.01023850       0.01950770
H        3.10390000       6.17370000      12.87560000      -0.01406090       0.03445520      -0.02316470
H        2.12430000       8.00090000      10.49040000       0.00077674      -0.02378810       0.00094317
O       16.23270000      14.51170000       6.94660000      -0.09690180       0.03960030      -0.02693480
H       17.79350000      13.92960000       6.48740000       0.05613420      -0.02318320      -0.02726330
H       15.14840000      14.98190000       5.28170000       0.03838880      -0.02240170       0.05284450
O        0.52800000      21.95226000      15.51060000      -0.01148660       0.02815250      -0.05378600
H        0.59430000      23.86616800      15.64870000       0.00066705      -0.04686970      -0.01055550
H       24.15150000      21.43688000      13.61080000       0.01636680       0.01682810       0.05665420
O       20.03180000       8.30409000       8.94910000      -0.05299980      -0.00741066       0.00258349
H       18.31870000       8.15055000       8.03140000       0.04701870       0.00735434       0.00909298
H       19.64970000       7.32118000      10.54500000       0.00880650       0.00753404      -0.01382510
O       12.51590000      14.93140000      14.89878000       0.04687590       0.06069910       0.03599470
H       14.30960000      15.42160000      14.46664000      -0.02323440       0.00180358       0.02317280
H       12.56470000      13.55270000      13.91270000      -0.01810240      -0.07290340      -0.05842200
O        4.64880000       1.68510000      11.30360000       0.03742840       0.01611450       0.02414350
H        6.46390000       2.18280000      11.68300000      -0.02894280      -0.01627570      -0.01950870
H        3.85570000       2.06310000      12.92480000      -0.00632897      -0.00440518      -0.00760634
O       15.66620000      22.21064000       5.48224000      -0.02521390       0.08055980      -0.00589686
H       14.68960000      24.15168800       5.52576000       0.03636680      -0.08721760       0.00955112
H       15.43190000      21.13020000       7.00189000      -0.00799007       0.01589480      -0.01113390
O       13.86920000      22.56243000      21.95930000      -0.05200320       0.01271590       0.07250090
H       14.99150000      22.11930000      20.73690000       0.05608660      -0.02666370      -0.03823210
H       13.92980000      21.46167000      23.52730000       0.00826655       0.00982260      -0.03715670
O        4.37659000      12.68410000      13.85660000       0.01973290       0.04395440      -0.06225450
H        4.48997000      12.79360000      15.57845000      -0.00439923      -0.00918219       0.06008260
H        3.60336000      11.25130000      13.18640000      -0.01406430      -0.04079110       0.00681454
O       18.03310000      15.44720000      15.36180000      -0.00926614      -0.00065410       0.00271150
H       17.81050000      17.23960000      14.69990000       0.01517290      -0.02714400       0.00023719
H       18.82250000      14.22390000      14.20280000      -0.00566511       0.02093140      -0.00179761
O       10.23660000      19.45390000      14.70800000       0.00937636      -0.02103730      -0.00299648
H       10.94490000      17.78350000      15.14664000      -0.00057392       0.01260840      -0.00645371
H        8.55999000      19.36780000      15.36022000      -0.01805190       0.01081040       0.01480320
O        0.62780000       6.94310000       7.31430000      -0.01593590      -0.00304107      -0.00262743
H       23.09520000       7.29160000       7.49520000       0.02318380      -0.01431590      -0.00188838
H        0.98550000       5.15450000       6.87350000      -0.00863661       0.01844980       0.00843911
O       16.87666000       8.16806000       4.66888000      -0.01943590       0.01913410      -0.04565490
H       17.86590000       9.67322000       4.02039000      -0.01788560      -0.02697400       0.01691920
H       15.41160000       7.88959000       3.40752000       0.03776500       0.00421411       0.03265610
O       18.26300000      21.67510000      18.84750000      -0.03629390       0.01813110      -0.01212120
H       19.72240000      20.87300000      19.50570000       0.01946270      -0.01496650      -0.00709145
H       17.83730000      21.18370000      17.12590000       0.01613200      -0.00231037       0.01702740
O       23.28121000      19.63010000      19.51620000       0.02990430       0.12614800      -0.02594660
H       22.98209000      17.97730000      19.74740000      -0.00754725      -0.08354560      -0.00792142
H       24.08333900      20.49320000      17.83530000      -0.02749490      -0.04156290       0.03609640
O       14.95400000      18.92390000       1.60427000      -0.01654430       0.01205160       0.01064360
H       15.70690000      20.67290000       2.28428000      -0.04342850      -0.06539420       0.01211770
H       13.36250000      18.01330000       2.46251000       0.06125350       0.04912320      -0.01887230
O       21.05150000      14.68560000      19.85760000      -0.01800860      -0.07853350      -0.05544200
H       21.89030000      12.78160000      19.97190000      -0.03870870       0.07710030      -0.00184829
H       19.72800000      14.57720000      18.20410000       0.05024840       0.01133390       0.06108610
O        7.60720000      18.91000000      23.98980300      -0.00972585       0.05997590       0.03147070
H        7.83750000      17.27250000      23.61757500       0.00865298      -0.08456060      -0.03535080
H        7.84470000      18.80010000       1.47415000      -0.00051789       0.01790620       0.01086280
O        7.87171000      20.64350000       5.07230000      -0.04870170       0.12273400      -0.21783600
H        8.28661000      20.08090000       6.47190000       0.06234390      -0.07241750       0.19758500
H        8.41534000      22.57860000       4.78360000      -0.02192860      -0.05506950       0.01340070
O        3.79308000       6.22820000       1.99690000       0.00649554       0.05456130      -0.13746700
H        3.26586000       5.93540000       3.54913000      -0.03959830      -0.01099080       0.09627270
H        2.68644000       7.66670000       0.93391500       0.03986480      -0.04211640       0.03902210
O       13.11410000      11.82440000      10.21370000       0.00072324      -0.05234190      -0.00171839
H       13.33250000       9.82080000      10.40380000      -0.00519848       0.06749630      -0.00953897
H       14.03330000      12.59110000       8.76155000       0.00205165      -0.01805400       0.01740970
O       18.79268000       5.66610000      13.24760000       0.00033117      -0.03601590      -0.02302820
H       19.85760000       6.55506000      14.36990000       0.01235070       0.02536910       0.02296150
H       19.92821000       4.19665000      12.95460000      -0.02184440       0.00722499      -0.00891493
O        2.37960000       9.40420000      22.89551000      -0.04039510      -0.08569310       0.04198260
H        3.39420000      10.63940000      22.43219000       0.06197850       0.08322300      -0.03006940
H        0.73480000       9.74770000      22.31242000      -0.02910460       0.00714346      -0.01423620
O       22.01700000       9.55610000      20.79560000       0.00724413       0.01143270      -0.02784280
H       21.15110000       8.15803000      21.42670000      -0.02065210      -0.02805270       0.03910630
H       21.69460000       9.13866000      19.03220000       0.01692440       0.00939165      -0.01241550
O       14.65330000       3.60800000      21.97940000      -0.01342180      -0.00329244      -0.01543540
H       16.34630000       3.32200000      21.50340000       0.02526580      -0.00207328       0.00325350
H       13.93970000       1.91990000      22.01400000      -0.00166122      -0.00302638       0.00342539
O        8.30830000      13.58850000      22.26430000      -0.00937385      -0.01483960       0.02247490
H        9.57680000      13.10010000      21.00310000       0.00284090      -0.01443160       0.01501610
H        7.85720000      12.18220000      23.46130000       0.02516530       0.01999810      -0.02644050
