192
Lattice="24.41789 0.0 0.0 0.0 24.41789 0.0 0.0 0.0 24.41789" Properties=species:S:1:pos:R:3:force:R:3 TotEnergy=-1103.45113 cutoff=-1.0 nneightol=1.2 pbc="T T T"
O       22.69360000      20.01797000      19.83398000       0.00053095      -0.01106320      -0.03550540
H       20.91870000      20.22744000      19.01078000       0.03775460      -0.01510960       0.00778667
H       23.70260000      19.09322000      18.47948000      -0.02836030       0.02241050       0.03446960
O       23.04581000      19.98841000       0.70995600      -0.00327046      -0.00941973       0.01484580
H       23.84801000      21.61281000       1.06863000      -0.01050100      -0.00169656      -0.01260960
H       22.63371000      19.70281000      23.37106000       0.01506980       0.01449020      -0.00884489
O       11.03890000       6.25484000      14.54360000       0.02473680       0.04128800       0.05149480
H       12.00350000       5.78532000      16.12470000      -0.01780510      -0.00274835      -0.03365140
H       10.49290000       4.84190000      13.65730000      -0.00146981      -0.04280740      -0.01666720
O       18.46847000      14.27249000      21.22307000       0.06800150       0.04090540       0.02341220
H       20.40076000      13.77569000      20.93200000      -0.04952250       0.01125930      -0.00164822
H       18.64012000      16.17810000      21.73216000      -0.01193850      -0.05250520      -0.00810531
O        4.54672000       8.06561000      19.86470000       0.06410350       0.03057780      -0.00688932
H        6.18439000       8.55471000      21.04470000      -0.04130270      -0.00755612      -0.02265770
H        5.15161000       8.75321000      18.11850000      -0.01828120      -0.01654860       0.03031110
O       19.12762000      10.83670000       6.72494000      -0.07200580      -0.02698280       0.03491160
H       18.17744000      10.12580000       8.30446000       0.04038060       0.02299900      -0.04428340
H       17.88408000      10.16730000       5.34838000       0.03701830       0.01655850       0.01381360
O       20.71861000       2.40711000      12.01730000       0.04981160       0.05838490      -0.00121713
H       22.53191000       2.23351000      11.57000000      -0.03328150      -0.01267100       0.01555250
H       19.57641000       1.13971000      11.62510000      -0.01353940      -0.04552780      -0.00928175
O       22.08640000      18.38678000       7.73043000       0.01278160      -0.02394510      -0.04950220
H       23.56836900      17.64668000       6.57419000      -0.04620020       0.02174940       0.03093080
H       20.47898000      17.85688000       6.80861000       0.03169320       0.00086944       0.01897200
O        7.28921000      14.97268000      19.37280000       0.05430270      -0.00524957       0.04316380
H        5.70331000      14.83228000      18.73650000      -0.06142070      -0.00674267      -0.02757800
H        7.21461000      14.07518000      21.00680000       0.00714583       0.00822889      -0.02043850
O        8.78274000      22.40428000      23.67348000      -0.02742380      -0.01821180       0.03408260
H       10.47070000      22.49538000      23.19488000       0.03800500       0.00609681      -0.01726650
H        8.90257000      21.16148000       0.72719000      -0.00892604       0.00984509      -0.02325950
O       13.57409000       0.38809200       7.96191000       0.03099130       0.02773620      -0.04130480
H       14.55245000       1.43383000       6.66955000      -0.03511150      -0.02393760       0.02548080
H       12.33899000       1.50433000       8.79211000       0.01181230      -0.00518086       0.00387433
O       14.01469000       4.39481000       3.91332000       0.02546040       0.02483500       0.05429560
H       12.32369000       3.99471000       3.79372000      -0.06523610      -0.00358652       0.02812570
H       14.29149000       3.81171000       2.33092000       0.04684420      -0.02219850      -0.07532060
O       14.32130000      18.36298000       9.37879000       0.05483500       0.03463680      -0.03448620
H       15.34230000      17.40968000       8.12009000       0.00905927       0.02465540       0.00774175
H       13.34100000      17.01418000       9.70489000      -0.05802550      -0.06575580       0.03931840
O        5.36851000      13.51080000      12.58931000      -0.06821310       0.03506530      -0.00720494
H        3.91751000      14.58320000      13.56071000       0.04502100      -0.02682360      -0.01473720
H        4.08071000      12.79220000      11.22181000       0.03749890       0.00441730       0.03875410
O        0.32431300       0.70353500       2.11530000       0.08208450      -0.01629910      -0.05872300
H       24.00685600       0.66550600       3.73041000       0.01271270      -0.01294140       0.03472210
H        2.52416000       0.32427200       1.82283000      -0.08807940       0.02752540       0.02797660
O       17.30858000      23.28750000      11.12731000      -0.00507076      -0.06667300      -0.03541020
H       16.29278000      23.84750000       9.64021000      -0.00116461      -0.00569586       0.01979220
H       17.53278000      21.34690000      10.75691000      -0.00547728       0.06464420       0.01341180
O       14.48228000      12.25210000      23.83010000       0.08899100       0.05309970       0.10842400
H       14.09408000      11.71660000      22.31960000      -0.05119740      -0.04679720      -0.11824100
H       16.27178000      12.83850000      23.32460000      -0.02851200      -0.00233438       0.01159430
O        5.38539000      14.51882000       3.31199000      -0.03173250      -0.05342130       0.01208860
H        5.99579000      13.47812000       4.84609000      -0.00779896       0.03074240      -0.03205540
H        4.00359000      13.18872000       2.60839000       0.05189720       0.03041530       0.01645340
O       18.83042000      19.52350000      16.97101000      -0.09561100      -0.00252889       0.00855069
H       17.54052000      21.12060000      16.96451000       0.04007680      -0.06296630      -0.01465500
H       17.53502000      17.85620000      16.91501000       0.04793290       0.05331790       0.00171349
O        9.00182000       3.31639000       4.37617000       0.00343638      -0.00602677       0.05075030
H        7.88752000       2.63049000       5.76010000       0.02127550       0.02093260      -0.01518930
H        8.00452000       3.09379000       2.94986000      -0.02442910      -0.00867630      -0.03496180
O        5.99451000      18.66100000      10.71329000       0.03447430      -0.05059070      -0.00974495
H        7.13391000      18.84140000       9.18489000      -0.01736330      -0.00515610       0.03883280
H        6.29081000      16.77910000      11.43169000      -0.01435510       0.05376990      -0.02678000
O        6.26459000       8.96313000      15.10252000      -0.05453010       0.09436330      -0.00766515
H        6.88089000      10.65290000      14.38652000      -0.03131380      -0.02581520       0.01310020
H        7.64609000       8.03780000      14.89862000       0.09089910      -0.06317190      -0.00110449
O        5.54729000       1.60616000       0.93727000       0.06568020      -0.08446200       0.07113860
H        4.88737000       2.45589000      24.11395800      -0.06437130       0.07824330      -0.09757940
H        6.81896000       0.55376900      24.39996200      -0.01253740       0.00071529       0.02254210
O       20.57251000       4.18753000       0.85881000       0.01054190       0.02495610       0.03965310
H       20.21031000       5.95266000       1.67611000       0.01752850      -0.06389320      -0.02019010
H       21.94041000       3.14549000       1.78641000      -0.03273210       0.03922590      -0.02679780
O       24.16800700      11.47842000       5.42801000       0.01375370       0.02345620      -0.00002731
H       22.47156000      10.98022000       5.52671000      -0.03157010      -0.02780410       0.01066830
H       23.79194400      13.27242000       5.36991000       0.02002590       0.00258862      -0.00685744
O       11.52950000      13.43801000      10.68900000       0.00674830      -0.04093440      -0.02646910
H        9.86940000      13.33271000       9.75141000       0.03816070      -0.00932640       0.01344430
H       12.60590000      11.81161000      10.29360000      -0.03699350       0.04848770       0.01344340
O        7.09859000      20.77460000      18.91810000       0.00399757       0.05681300      -0.02434780
H        6.63209000      19.12290000      18.68170000      -0.00942674      -0.04863990       0.00912513
H        7.29829000      21.28450000      20.63180000       0.00785191      -0.00953055       0.01795960
O        8.26081000       8.46731000       3.32342000       0.00680544       0.03994090      -0.00985725
H        8.45261000       6.86211000       4.02082000       0.00674595      -0.03945100       0.01159600
H        6.50221000       8.69651000       2.98032000      -0.01769160       0.00035336      -0.00362462
O       12.91790000      10.29101000      19.52840000       0.01103260      -0.02760090       0.05301350
H       12.47950000      10.88711000      17.97060000      -0.02167160       0.03498300      -0.05658340
H       13.52030000       8.63111000      19.17850000       0.01387600      -0.01826870       0.00095608
O        2.39375000      23.21598000      18.04050000      -0.05850950       0.01045580       0.02952690
H        0.98065700      22.73788000      19.32060000       0.04073020       0.00303478      -0.03934950
H        3.96889000      22.54008000      18.54840000       0.01612340      -0.01570680       0.00699557
O        0.61343100      16.54090000       3.90092000       0.01491880       0.01362010      -0.03770410
H        2.36557000      16.23080000       3.33333000      -0.00727163      -0.00501051       0.02444730
H        0.04340900      17.53360000       2.38895000      -0.01049230      -0.00368966       0.02403110
O        1.17291000       1.07518000      13.21110000       0.00803822      -0.01178190      -0.12867800
H        1.83187000      24.05699300      11.96970000      -0.02205060       0.04981320       0.02676580
H        1.70037000       0.36872000      14.63540000       0.02085020      -0.03841980       0.09894650
O       14.90458000       4.99842000      18.56588000      -0.07493800      -0.01199360       0.10281700
H       16.37658000       5.12442000      17.73168000       0.07877380       0.00548195      -0.04653180
H       15.31548000       4.48962000      20.47818000      -0.01660570       0.01174790      -0.06016610
O        6.07407000       2.70552000       8.54029000       0.00870758      -0.04575060      -0.02950850
H        5.26617000       3.66252000       9.80049000      -0.02148640       0.02206200       0.01865850
H        4.99467000       1.20342000       8.24319000       0.00832680       0.01414740       0.00966736
O       14.28278000      16.20891000       2.51983000       0.04983560      -0.05553650      -0.03897140
H       13.98868000      14.63141000       1.38409000      -0.00261350       0.03762010       0.02555120
H       12.79358000      16.85331000       3.10059000      -0.05927000       0.02005130       0.01326830
O       20.13480000      10.86751000      15.68970000      -0.04857110       0.11616400       0.01933000
H       18.39490000      12.17271000      15.81990000       0.06760000      -0.05174430      -0.00797103
H       19.58240000       9.29081000      15.27200000      -0.02212880      -0.06011600      -0.01188320
O        7.64789000      11.90529000       7.28977000      -0.05443970       0.01996890       0.06159990
H        7.88209000      10.51919000       6.25603000       0.01879500      -0.03919390      -0.03574890
H        6.20359000      11.28719000       8.41618000       0.03212770       0.01682070      -0.02194220
O        2.61108000       3.52112000      20.49800000       0.02033050       0.00251550      -0.00613796
H        2.64038000       1.92520000      19.53440000       0.00839178       0.01797050      -0.00032752
H        3.77078000       4.89768000      19.86320000      -0.02001120      -0.02814690       0.00582692
O        2.63889000      10.65329000       9.92221000      -0.01364940      -0.06844490       0.05193660
H        1.88579000       8.96059000      10.91171000       0.03284270       0.06785690      -0.04682120
H        1.82079000      10.97089000       8.36871000      -0.02615080      -0.00515442      -0.02100320
O       17.91800000      16.03430000       6.17351000       0.00274696      -0.03767990       0.02365230
H       18.08420000      14.15700000       6.60861000       0.00760046       0.03177220      -0.00642089
H       16.63340000      16.04300000       4.91501000      -0.01207480       0.00218730      -0.02232820
O        2.98869000      22.64224000       8.82001000       0.02185230       0.00386862       0.00868263
H        3.73309000      21.00692000       9.02521000       0.01037140      -0.00713487       0.01378010
H        1.63089000      22.29724000       7.72531000      -0.02640350       0.00695466      -0.01629510
O       17.52351000       5.52294000       8.59551000      -0.06934040      -0.00996789      -0.05136580
H       16.10191000       4.76534000       7.40901000       0.05204070       0.02993370       0.03926540
H       18.67511000       4.19151000       8.86051000       0.01602720      -0.01337360       0.01038370
O       16.74917000      14.70268000      16.83417000      -0.01833700       0.01094210      -0.02950790
H       17.14049000      14.47468000      18.57486000       0.01758010      -0.00662480       0.02934470
H       14.93400000      14.55218000      16.83835000      -0.00982930      -0.00242809      -0.01399200
O        3.63982000       5.71709000      11.89819000       0.01797020       0.01140340      -0.00283523
H        5.12142000       6.72029000      12.47009000      -0.03009190      -0.01273040       0.00430652
H        3.13702000       4.49349000      13.16089000       0.00088406       0.00284861      -0.00131713
O       10.50200000       1.91871000      11.44950000       0.04654830      -0.02729120       0.05060780
H       10.64540000       0.27840200      12.45330000      -0.00801935       0.03369280      -0.01918270
H        8.99100000       1.77228000      10.60670000      -0.05328460      -0.00281328      -0.02719890
O       14.36728000      22.29863000      21.42041000      -0.00065446      -0.00646391      -0.04963410
H       14.31698000      22.10782000      19.53191000      -0.00680828       0.01290670       0.03261690
H       15.63488000      21.04743000      21.79761000       0.00396248      -0.00261270       0.01771340
O       11.28730000      13.67289000      15.88811000      -0.00874083       0.03072460       0.19850600
H        9.71420000      14.15989000      16.94942000       0.03820490      -0.01297110      -0.03974530
H       11.15440000      13.42829000      14.29019000      -0.02712650      -0.01513690      -0.15327800
O       22.40590000      19.40160000      13.34700000      -0.07430590      -0.06460300      -0.03672000
H       20.84400000      18.65240000      14.27280000       0.04260680       0.03585510       0.00094472
H       21.67910000      18.68740000      11.65540000       0.04175620       0.02663010       0.02976180
O        9.46284000      21.61510000      14.08409000      -0.02329400      -0.00860471      -0.03867970
H        8.60384000      21.35440000      15.59294000       0.00352068       0.00785798       0.06222510
H        7.94492000      20.93270000      13.22149000       0.02549020       0.00350236      -0.02697450
O       22.82110000      23.32401000       6.89631000       0.01355260       0.03553860      -0.03307650
H       22.56440000      23.89591000       8.53681000      -0.00729420       0.00909928       0.02933840
H       22.23830000      21.65561000       6.86071000      -0.01318400      -0.04238260       0.00328128
O       16.83048000       9.08579000       2.83436000       0.04595850       0.04822500      -0.03717460
H       15.93960000      10.27400000       1.69105000      -0.00696367      -0.02226420       0.01356480
H       15.87423000       7.98101000       3.74239000      -0.04988130      -0.04058660       0.01528600
O       14.94580000      22.26258000      15.50530000       0.08180240       0.05097270      -0.02341090
H       13.45520000      21.76148000      14.96900000      -0.11736500      -0.04901890      -0.00689138
H       15.34370000      22.76118000      13.66450000       0.02872920       0.00394747       0.03848300
O        2.06373000      16.39410000      15.30811000      -0.06248450       0.01842780      -0.02941510
H        0.91705700      15.40420000      16.30961000       0.00800647      -0.02062780       0.02076450
H        0.49053600      17.09850000      14.27251000       0.05125710       0.00353243       0.01366390
O       17.48171000      18.75461000      24.10797100      -0.00578478       0.02963850      -0.09226250
H       19.08861000      18.98661000       0.25892400       0.04561750       0.00615034       0.03908340
H       16.26371000      17.99991000       0.65416000      -0.03253570      -0.02947260       0.05067770
O       23.21590000      13.14140000      18.85848000      -0.02561020      -0.00315398      -0.01018020
H       24.01000000      11.90410000      19.94808000       0.00215425      -0.00444963       0.00369369
H       21.97010000      12.12600000      17.76538000       0.02319320       0.00945119       0.00875797
O        9.27359000      18.57211000       2.59797000      -0.06408420       0.03491650       0.10423300
H        7.77989000      17.50291000       2.93753000       0.01152580      -0.01542220      -0.03058070
H        8.57709000      19.48671000       4.57254000       0.05927710      -0.02176470      -0.06912560
O       10.24950000      20.63868000       7.57031000       0.02477510       0.02643650      -0.00270471
H       11.76040000      19.92508000       8.51881000      -0.02042870       0.00641500      -0.02030140
H       11.01910000      22.25958000       6.93191000      -0.01508850      -0.02899600       0.01378520
O        3.39401000      10.09521000       2.05061000       0.08721970       0.01126600      -0.13632700
H        1.99903000       9.93671000       2.85165000      -0.12954000      -0.01391770       0.10910000
H        2.32458000       9.97971000       0.31337900       0.03454110      -0.00142942       0.01915860
O       14.99997000       8.93859000      11.88140000      -0.01817570      -0.06468130      -0.00347656
H       13.57639000       7.82599000      12.80220000       0.04797350       0.03487960      -0.03174090
H       16.10078000       7.62749000      10.89150000      -0.03457190       0.03127290       0.03201640
O       19.32257000       5.53675000      15.88090000       0.00562480      -0.00340405      -0.00243957
H       20.60836000       5.47580000      17.15890000       0.00425434       0.00712820       0.01466780
H       20.03657000       4.34781000      14.68250000      -0.01048950      -0.00127503      -0.01169760
O        0.54831000       9.49379000      22.18334000       0.08637920       0.03320700      -0.01830860
H       23.58900000       8.43599000      22.28717000      -0.02886310      -0.03818750      -0.00541519
H        2.25391000       8.75529000      20.95399000      -0.04176870       0.01225130       0.02817190
O       22.44300000       5.33670000      20.14651000      -0.19139100       0.09599490      -0.00777357
H       21.36550000       4.34657000      21.16541000      -0.00059097      -0.00784689       0.01476260
H       23.88230000       4.68827000      20.05321000       0.18370000      -0.08626150      -0.00403393
O       15.43760000       2.70581000      23.26821000      -0.00522096      -0.00809176      -0.01415220
H       17.24590000       2.63421000      23.28191000       0.00830946       0.00245714       0.01145520
H       14.95350000       1.11981000      22.41461000       0.00109886       0.00484833       0.00879358
O        8.47189000       9.90947000      22.51120000       0.06606340      -0.02337390       0.02321870
H       10.32349000       9.41253000      21.80940000      -0.06620540       0.02548940       0.01767000
H        8.65629000       9.75607000       0.03291000      -0.00556777      -0.00203428      -0.04667340
