192
Lattice="24.37724 0.0 0.0 0.0 24.37724 0.0 0.0 0.0 24.37724" Properties=species:S:1:pos:R:3:force:R:3 TotEnergy=-1103.40567 cutoff=-1.0 nneightol=1.2 pbc="T T T"
O       21.21760000       1.87176000      16.50108000       0.00853632       0.02052110       0.03002720
H       21.80700000       2.40786000      18.17518000       0.01003370      -0.01067930      -0.01436240
H       19.44320000       1.90647000      16.84188000      -0.01210910      -0.01194750      -0.01275770
O       22.80226000      19.84696000      10.80850000       0.07501830      -0.06982890       0.03700850
H        0.17032000      18.73886000      10.35130000      -0.06407650       0.03468050       0.02082080
H       22.32646000      20.73726000       9.41889000      -0.01635880       0.03000450      -0.06042240
O        8.15808000       3.11481000      16.72270000       0.01750730      -0.00200934      -0.01151690
H        8.95692000       2.42831000      15.19740000      -0.02004440       0.00870115       0.01739400
H        6.48780000       3.80846000      16.34820000       0.00095986      -0.00206824      -0.00657533
O       17.35154000      14.31734000      24.06767600       0.00637618       0.05378250      -0.03469840
H       17.19908000      16.33640000      23.82368400      -0.00171408      -0.06045600       0.02595310
H       16.75032000      13.65244000       1.24201000      -0.00071068       0.00615988       0.01402380
O        6.32218000       8.96036000      20.79950000       0.05753820       0.02013400      -0.04254370
H        6.32092000      10.77066000      19.94590000       0.01050640      -0.05489630       0.01529820
H        8.12541000       8.08386000      20.59410000      -0.05551630       0.03214640       0.00251534
O       22.91001000      13.37500000       8.91042000       0.02656710       0.05157920       0.04417450
H       23.67406200      12.04230000       8.09444000       0.01794630      -0.05043470      -0.04061260
H        0.12893600      14.33490000       9.37991000      -0.03582590      -0.00490168      -0.00833247
O       12.21066000      23.95170000      11.31100000       0.02459170      -0.04828490      -0.01124750
H       13.26846000      22.93520000       9.79333000      -0.03847930       0.03176190       0.05600880
H       11.56656000      22.79390000      12.75220000       0.01775570       0.01602850      -0.05378730
O        0.24571200      23.47368000      13.60300000       0.11530400      -0.01659440      -0.00846079
H       23.67843200      22.33178000      12.69680000      -0.00711774      -0.06585350      -0.05245090
H       23.25366000      24.19638000      14.15930000      -0.09679180       0.08672370       0.06623220
O        7.25476000      13.23188000      17.82700000       0.06865930      -0.03104530       0.04128210
H        9.01066000      13.64648000      18.60570000      -0.03841470      -0.01865590      -0.03284550
H        6.62086000      14.84248000      17.81200000      -0.02830420       0.05256040      -0.00466420
O        7.53381000      21.44978000      21.96898000       0.02178770       0.00610434      -0.01026050
H        9.18280000      20.53148000      22.08968000      -0.03885980       0.00931760       0.00768785
H        6.10844000      20.82298000      22.98948000       0.01730280      -0.01586960       0.00121969
O       12.73534000       3.07948000       4.55598000       0.06298730      -0.00029780      -0.06322400
H       11.26914000       2.01888000       4.43089000      -0.01751440      -0.00172775       0.00709265
H       13.56504000       2.89633000       2.67764000      -0.02908190       0.00016276       0.05122480
O       13.55174000       7.93136000       2.17962000       0.04449790      -0.04098880       0.00570057
H       13.85834000       6.24966000       3.17572000      -0.03532530       0.06574360      -0.01996530
H       12.27904000       9.15426000       2.68092000      -0.01134440      -0.01254970       0.01878310
O       14.52700000      17.98108000       6.04364000       0.01349980       0.00786980       0.07458510
H       15.49870000      16.73018000       6.98114000      -0.00336255       0.00158771      -0.01532420
H       14.37580000      17.50278000       4.39944000      -0.00631374      -0.02263750      -0.05812890
O        2.57376000      16.45000000      10.78116000      -0.04048050       0.04590230      -0.15978900
H        4.15616000      17.10700000      10.00436000      -0.00569380      -0.01101770       0.00704343
H        2.96576000      16.18210000      12.32056000       0.03794280      -0.03429960       0.15425900
O       23.43056100       1.80462000      22.11536000      -0.07542100      -0.05819080      -0.02059080
H        0.31944800       2.90915000      22.35997000       0.06523530       0.04581590       0.01796870
H       23.32906000       0.39653600      23.29722000       0.01173870       0.01110250       0.00002519
O       20.55888000      23.34900000       6.60746000       0.02978110       0.00296174      -0.08454450
H       20.73888000      23.22590000       4.57986000       0.00587882       0.00336112       0.08194700
H       18.85968000      22.86440000       6.78816000      -0.03139850      -0.00323509       0.00929026
O       17.63528000       8.69468000      21.47450000       0.05725450       0.06424720       0.08496900
H       16.16688000       8.98124000      20.52850000      -0.03558560       0.00729973      -0.02294260
H       17.76558000      10.22430000      22.95090000      -0.00867196      -0.06251300      -0.06019670
O        9.90034000      11.46062000       3.37164000       0.04418090       0.02875390       0.05209310
H        9.38874000      12.08672000       5.08864000       0.01710380      -0.01319700      -0.02451520
H        8.41914000      11.20542000       2.52114000      -0.05865180      -0.01921710      -0.03000030
O       16.41722000      24.15960000      16.29156000      -0.01598320      -0.03492120      -0.01927940
H       15.26242000       0.37626000      14.99886000       0.00167253       0.00506178       0.00548168
H       16.64162000      22.36330000      15.70836000       0.01296450       0.02741100       0.01371870
O        8.28392000       1.29404000       5.17244000      -0.02762540       0.05419470       0.02262250
H        8.01522000       2.56174000       6.63686000       0.01528640      -0.03798260      -0.01256160
H        7.46252000       2.49344000       3.97617000       0.00097565      -0.01986160      -0.00963234
O        7.15446000      17.51200000       9.45214000       0.00421974      -0.01411870      -0.02798930
H        8.00676000      15.93390000       9.07034000      -0.01417110      -0.01598800      -0.00924108
H        8.57456000      18.18460000      10.31224000       0.00690149       0.02940920       0.02678430
O       15.31920000       7.50087000      12.84902000      -0.00819398       0.00843069       0.01247330
H       13.97144000       6.61892000      11.83252000       0.04653510      -0.00002575       0.00784768
H       17.03884000       6.79559000      12.77492000      -0.02587600      -0.00071040      -0.01442610
O        5.20855000       2.59225000      21.83616000      -0.04714800      -0.11270200       0.07917040
H        5.49290000       0.52270500      22.09329000      -0.00590447       0.08916180      -0.01051510
H        6.27411000       2.90507000      20.56875000       0.05677630       0.02034620      -0.06774650
O       19.52586000       4.90960000      23.96740000       0.02663200      -0.02493730      -0.03365680
H       19.21476000       6.46212000      22.94940000      -0.00507674      -0.01540130       0.01414200
H       20.65896000       3.81750000      22.81510000      -0.02052020       0.02251060       0.03353150
O        0.67149000       9.65572000       5.78026000      -0.09985060      -0.07899020       0.07101520
H       23.56259300       8.30702000       5.14746000       0.05876580       0.04877410       0.00595259
H        1.61545000      10.30632000       4.55346000       0.04479960       0.02986740      -0.07595900
O        9.73847000      12.67496000       8.66155000       0.04448540       0.04876050      -0.00519072
H        8.76315000      11.32636000       9.13578000      -0.03102920      -0.04156060       0.01919170
H       11.34550000      12.69146000       9.65984000      -0.01690770      -0.00630204      -0.01493940
O        6.92064000      19.16530000      17.39830000      -0.01502750       0.02525740      -0.00427930
H        5.18524000      19.48880000      16.71160000       0.03208410       0.00095378       0.02383240
H        7.28134000      20.47670000      18.79360000      -0.01866360      -0.03022500      -0.02345230
O        5.39506000       9.49716000       0.97532000       0.01612880      -0.07217010       0.03410590
H        6.20336000       9.74476000      23.72876000      -0.00806882      -0.00654722      -0.00302272
H        5.67236000       7.28906000       1.29192000      -0.01968110       0.08458910       0.00040774
O       14.49130000       9.20126000      17.99090000       0.08670250       0.00475781      -0.07324870
H       15.14930000       7.91666000      16.67260000      -0.02521140       0.04032060       0.02648080
H       13.12370000       8.51986000      18.72580000      -0.07254790      -0.04583180       0.03603360
O       23.12320000      21.69458000       1.61016000       0.06722460      -0.01063530      -0.00605852
H       21.60684000      20.91668000       1.19936000      -0.03105000      -0.02562810      -0.01348080
H        0.18495100      20.39328000       1.26376000      -0.03975400       0.04223260       0.01271010
O        1.94777000      13.90910000       1.18699000      -0.05439290      -0.05116530      -0.04156140
H        2.92456000      12.27110000       1.03818000      -0.01605800       0.03163190       0.00254222
H       24.35775300      13.40130000       0.07810100       0.07332710       0.02878100       0.03223650
O        3.06273000       4.94789000      16.12880000       0.02841110       0.08196250       0.07257180
H        2.22458000       3.69120000      15.40180000      -0.04976860      -0.06953960      -0.03722210
H        2.09138000       5.53106000      17.79940000       0.03050730      -0.01714640      -0.03582280
O       11.12628000       6.17642000      20.22518000       0.00217144      -0.03668050       0.00703342
H       10.52508000       5.23002000      18.66238000       0.00948432       0.00457967       0.04102390
H       11.86728000       5.00632000      21.63878000      -0.02038680       0.02883640      -0.04567410
O        5.47933000       0.29372000      11.74564000      -0.08759800       0.05835550       0.01602020
H        6.27437000      23.15936000      11.52444000       0.01832920      -0.05361970      -0.00541335
H        3.53769000       0.08632000      12.17174000       0.06633700      -0.00487989      -0.01047550
O       18.14108000      10.18636000       3.02906000      -0.02517640      -0.04286410      -0.01359260
H       16.21348000       9.34906000       2.71839000       0.05922070       0.01236360       0.01086250
H       19.51308000       8.78166000       3.22980000      -0.04604280       0.03229300       0.00115111
O       23.48080000      10.85746000      13.65660000      -0.02170030      -0.00216470      -0.00253186
H        0.78106000      11.33646000      13.79250000       0.05891430       0.00094339       0.03235640
H       23.42130000      11.66066000      12.03860000      -0.03671560       0.00409495      -0.02260000
O       14.01284000       4.02644000       9.65243000      -0.02645070      -0.05900460      -0.05941140
H       14.04194000       3.69624000       7.55178000      -0.01012000       0.01153150       0.07856470
H       13.26834000       2.31244000      10.37530000       0.02457830       0.04290790      -0.01956790
O        1.52878000       6.66268000      20.63140000      -0.13928700      -0.01273700      -0.04236720
H        0.19368000       8.04168000      20.10770000       0.03363020      -0.03767250       0.01793110
H        2.95758000       7.47986000      20.92450000       0.09529450       0.05186180       0.02099580
O        5.11944000       9.03664000       9.42986000       0.10421300       0.00282681       0.04506120
H        5.69204000       7.31964000       9.54806000       0.00437883      -0.00134273      -0.00522083
H        3.56014000       9.00814000       8.86216000      -0.10476500      -0.00113458      -0.04641150
O       18.08860000      13.50350000       6.97466000      -0.01338030      -0.00141420      -0.01347490
H       19.82980000      13.46780000       7.36966000       0.02633010       0.01650200       0.03087180
H       18.34730000      12.46420000       5.47546000      -0.02620540      -0.01216580      -0.01202710
O        1.38564000      21.11999000      18.17346000      -0.00413867       0.01749180      -0.02243900
H        1.48424000      22.27743000      19.65226000      -0.00403930      -0.00860298      -0.03969470
H        1.02484000      21.95358000      16.37096000       0.00795255      -0.00831290       0.06182630
O       21.93516000       4.27668000       8.76296000       0.03284960       0.03518070       0.03800510
H       21.95356000       4.76490000      10.63516000      -0.01124470      -0.00486856      -0.03871220
H       20.90386000       2.89013000       8.47496000      -0.02009450      -0.03529720       0.00288358
O       14.51877000      16.45698000      13.86044000       0.03826970       0.00161687      -0.01119640
H       16.06442000      17.55288000      14.05264000      -0.02422570      -0.02398180      -0.00019462
H       15.02973000      14.93268000      12.75944000      -0.01410540       0.02405080       0.01192130
O        8.33602000       4.61714000       9.70914000       0.03446300      -0.03297660       0.05649170
H       10.25912000       4.41644000      10.13274000      -0.05125690       0.01044320      -0.02051110
H        7.51562000       3.66804000      11.19544000       0.01708650       0.01953560      -0.04575440
O       15.24710000      22.62159000       7.02508000       0.03887570      -0.04823000       0.08402440
H       14.61730000      23.46342600       5.69855000      -0.03368820       0.03481200      -0.06422910
H       15.28520000      20.72522000       6.80606000      -0.01341300       0.02058770      -0.01437500
O       12.20468000      18.18157000      21.01796000       0.01040530      -0.04291120      -0.01788780
H       12.55218000      16.43491000      20.28256000      -0.00724996       0.03541130      -0.00657235
H       12.03198000      17.63137000      22.72156000      -0.00289037       0.00930139       0.02467150
O        4.51753000      11.97384000      13.73984000      -0.02320150       0.02935940       0.01996630
H        5.27362000      11.50784000      15.29300000       0.00824378       0.00460497       0.01465510
H        4.88119000      10.62204000      12.69414000       0.00833164      -0.03146230      -0.03870240
O       19.24430000      19.46520000      15.25410000      -0.04964520       0.01633380      -0.01005390
H       20.19960000      19.64680000      13.76100000       0.02197300      -0.00722897      -0.00947630
H       20.06170000      18.70920000      16.64620000       0.02111820      -0.01141370       0.01608680
O       10.11300000      19.44980000      12.92404000      -0.06942190       0.03830090       0.05125690
H       11.51690000      18.46390000      13.18504000       0.04878120      -0.03670820       0.01062750
H        9.08920000      19.37750000      14.66061000       0.02427820      -0.00267573      -0.04701180
O        3.31176000       3.64192000       7.04086000      -0.01549450      -0.00963079       0.02007170
H        1.72276000       4.28442000       7.80266000       0.01836140      -0.01347530      -0.01231390
H        3.73156000       2.03562000       7.90556000      -0.00759097       0.02507020      -0.01168460
O       21.42446000       6.44591000       4.23019000      -0.02225670      -0.06472390      -0.07875830
H       21.47306000       5.23280000       5.56409000       0.00075663       0.00473805       0.02483530
H       20.86309000       5.06196000       2.60325000       0.02199190       0.06975100       0.04300570
O       14.34410000      22.90228000      21.21510000       0.06504370       0.08812250      -0.03590820
H       13.82960000      21.38228000      20.69300000      -0.04702700      -0.09622550      -0.00611403
H       15.20140000      23.30958000      19.49760000      -0.01440100       0.01111690       0.04115860
O       18.19685000      19.33300000      23.81786000      -0.04664160       0.03990060       0.04926540
H       18.91220000      18.86370000      22.28686000       0.02389800       0.00515510      -0.04627100
H       17.03677000      20.85950000      23.65976000       0.02759580      -0.04099640      -0.01009210
O       11.10826000      16.99676000       1.88789000       0.01330610       0.07953870       0.02031360
H       10.14956000      18.05476000       3.16615000       0.01091330      -0.03318500      -0.03057620
H       10.54346000      15.37276000       1.66191000      -0.02561970      -0.04675970       0.01111910
O       21.49120000      18.00330000      19.81648000       0.01296040       0.09036690      -0.04400350
H       22.08320000      16.50680000      20.37968000       0.01387400      -0.08300250       0.03425490
H       23.17220000      18.82040000      19.44028000      -0.03156100       0.00323671       0.00053863
O        3.89364000      19.69756000       0.72814200       0.03980810       0.04315290       0.04227760
H        3.37824000      18.03536000       0.66896000      -0.01423900      -0.05610330      -0.00735228
H        5.10104000      19.71566000       2.29890000      -0.02885380       0.00833604      -0.03397280
O        7.26640000      20.55568000       4.68596000       0.03205240       0.09689090      -0.12492200
H        6.94123000      19.84538000       6.12046000      -0.02561160      -0.05890780       0.12658000
H        7.47260000      22.49018000       4.92696000      -0.00361165      -0.04235280      -0.00185262
O        5.02977000       4.40936000       2.25583000       0.01339760       0.01829830       0.04805940
H        4.88822000       3.90456000       0.49981000      -0.02063930      -0.01634040       0.00378060
H        3.92769000       4.23966000       3.89514000       0.01388810      -0.00448837      -0.05160750
O       14.63631000      12.49114000      10.77110000       0.04056080      -0.01986570      -0.01829480
H       14.98158000      10.81154000      11.68650000      -0.00142102       0.03190090      -0.02580770
H       15.96805000      12.73264000       9.22997000      -0.03154220      -0.01579350       0.04403900
O       21.32907000       6.33792000      13.51890000      -0.04226190       0.06838680      -0.08459170
H       22.47928000       7.68953000      13.77380000       0.01305650       0.01909700       0.00152357
H       21.64195000       5.07359000      14.52740000       0.02437020      -0.09345100       0.08137440
O       22.18340000      13.97774000      22.35048000      -0.07412920      -0.07582640       0.01658570
H       21.78350000      12.23804000      21.30101000       0.02464740       0.05533520       0.02047340
H       20.34940000      14.01644000      23.40341800       0.05388280       0.00476976      -0.03069430
O       21.77540000       9.97058000      19.02926000      -0.06359430      -0.01289070      -0.03409930
H       19.67830000       9.32272000      19.34726000       0.07405470       0.02261740       0.00223022
H       21.95430000      10.51310000      17.18526000      -0.00449379      -0.01016080       0.04227100
O       14.26900000       2.86456000      23.89106000      -0.03497600      -0.06164140      -0.02861260
H       15.92120000       3.51846000      24.05046000       0.02717120       0.00454173      -0.00979474
H       14.20770000       1.08576000      22.80486000       0.00811293       0.05777390       0.03954530
O       12.46294000      13.95070000      17.85530000       0.01104980       0.02799210      -0.00651114
H       13.49914000      14.80250000      16.52120000      -0.01943910       0.00181981       0.00877557
H       13.29434000      12.37120000      17.94170000       0.00743792      -0.02297530       0.00365671
