192
Lattice="26.36721 0.0 0.0 0.0 26.36721 0.0 0.0 0.0 26.36721" Properties=species:S:1:pos:R:3:force:R:3 TotEnergy=-1102.89689 cutoff=-1.0 nneightol=1.2 pbc="T T T"
O       20.35290000       0.73503900      18.50130000       0.09820020      -0.03026320       0.04212480
H       21.83240000       0.04460300      19.89160000      -0.07737460       0.03328590      -0.06211500
H       18.81240000       0.79032800      19.37420000      -0.01923910      -0.00119082       0.01788600
O       22.60430000       5.24204000       5.04444000      -0.04846500      -0.01344440      -0.00189004
H       21.18140000       6.20957000       4.31243000       0.01158030      -0.01090750       0.00709337
H       24.01290000       6.20239000       4.68715000       0.04087720       0.01984310      -0.01419300
O        5.82292000      16.42690000      21.57100000       0.03757880      -0.04369150       0.00364161
H        4.11679000      16.59460000      21.75540000      -0.05462540       0.00321709       0.01071880
H        6.42119000      18.03750000      21.23470000       0.01726120       0.03812400      -0.01386330
O       17.70640000      12.24240000      15.11950000       0.05781300       0.02373470      -0.05886470
H       17.94070000      12.22850000      16.80350000       0.02687270       0.00564992       0.07661470
H       16.08400000      11.74400000      15.11840000      -0.08466190      -0.02630690      -0.01454230
O       13.14290000       0.24489000       0.08736300      -0.07346630       0.08019120      -0.04744500
H       12.81410000      25.01200000      26.02865000      -0.00075953      -0.08227460      -0.00145859
H       14.40360000       0.78969000       1.04801000       0.07265650       0.00088236       0.05382520
O       24.77870000      13.81550000      19.06170000       0.01031590      -0.07321130      -0.01583460
H       23.90680000      14.86140000      20.07310000      -0.04913340       0.03066700       0.06442200
H       25.54320000      15.06880000      18.16420000       0.04565380       0.03505600      -0.05165010
O       15.55240000      19.93590000      10.16730000      -0.06935590      -0.10852800       0.08824510
H       14.90880000      17.73780000      10.46980000       0.03610250       0.11351200      -0.02261330
H       16.38050000      20.08400000       8.67310000       0.03096120      -0.00244983      -0.06525160
O        1.25403000      25.57040000       6.45150000       0.06397490       0.00632852       0.04216170
H       25.99756400      25.13700000       6.37254000      -0.10089600      -0.02175960       0.02507410
H        1.35947000      25.57320000       4.72980000       0.03660720       0.00815900      -0.06900130
O       17.13290000      17.00450000       3.60250000      -0.00623199      -0.05552420      -0.13896300
H       17.70010000      17.38260000       1.27742000      -0.03325770      -0.01569520       0.10616400
H       18.05540000      18.29430000       4.23309000       0.03911210       0.06827300       0.03478330
O        6.75347000      15.40520000       7.47895000      -0.01967760       0.00451889       0.11210700
H        7.24581000      13.83650000       8.27652000      -0.00018779       0.00735717      -0.02036970
H        7.00655000      15.54930000       5.82944000       0.01949880      -0.01361830      -0.08939760
O       19.62050000      13.07260000      21.24620000      -0.06790410      -0.07726850      -0.08092130
H       20.37700000      11.41030000      20.95300000       0.00421250       0.02657610       0.02006880
H       20.32620000      14.19670000      22.27200000       0.05770660       0.04305860       0.06299420
O        5.44616000       3.51184000      12.60860000       0.05562930       0.00543855      -0.04437010
H        7.01038000       2.49405000      12.52860000      -0.00889611       0.02637040      -0.00708765
H        4.61633000       2.38109000      13.60330000      -0.05192320      -0.02954970       0.03787190
O       21.54850000       5.95010000      10.48650000       0.03427720      -0.03392600      -0.02390240
H       21.42970000       7.69464000      10.70730000      -0.00705602       0.04227910       0.01254240
H       22.96550000       5.86395000       9.25384000      -0.02869170      -0.00564983       0.01236270
O       22.90120000       7.76003000      22.31150000       0.00521227       0.06218460      -0.04317880
H       23.94560000       7.36211000      20.88410000       0.00384575       0.02129680      -0.01297500
H       23.00700000       6.18734000      22.90780000      -0.00996995      -0.08122080       0.05406630
O       23.80090000      21.43090000      14.51710000      -0.00523360      -0.04329080       0.07406860
H       23.39300000      20.77210000      12.99280000      -0.02419340      -0.05609340      -0.05912140
H       24.13950000      22.95640000      13.87210000       0.02759630       0.09038460      -0.01000900
O        7.50923000      15.26060000       0.82285000      -0.04910620       0.01839810       0.04442720
H        7.80548000      14.96670000      25.54548500       0.00074102      -0.00825233      -0.08664150
H        9.11189000      15.04490000       1.47262000       0.04623850      -0.01318010       0.03767110
O       22.88580000      24.71200000      25.46500000       0.07625570       0.03753330      -0.05345240
H       21.49970000      24.28250000      24.54520000      -0.05830910      -0.02417930      -0.02215040
H       22.80460000      24.50830000       0.77129000      -0.02277190      -0.01664770       0.07865380
O        6.40168000      19.69110000       3.37036000       0.00552811      -0.02120350      -0.08753320
H        6.71656000      18.87640000       4.89807000       0.00642539      -0.01151880       0.02135770
H        6.76998000      18.36460000       1.84205000      -0.01055450       0.03765560       0.06587960
O        0.33441200      19.59250000      21.01520000       0.07643640      -0.10902100       0.00427394
H        1.16568000      19.19420000      19.40090000      -0.01102660       0.01138870       0.01281850
H       25.78138600      20.95600000      20.93880000      -0.06350830       0.10117600      -0.01720500
O        3.08985000       3.92320000       7.14379000      -0.01169420      -0.02637090      -0.03735020
H        3.48859000       2.14696000       7.34112000      -0.02390700      -0.01339330      -0.03534030
H        3.87514000       4.06125000       8.64325000       0.03754220       0.04959630       0.08354320
O        2.16437000      14.73880000      26.18170000      -0.00928560       0.05604840       0.02146330
H        1.48155000      13.30860000      25.44510000       0.01114300      -0.03935400      -0.01687760
H        3.86641000      14.83260000       0.44069000      -0.00492294      -0.01960630      -0.00780966
O        0.98243500      24.68210000      11.84950000       0.00391742      -0.03626940       0.09938650
H        1.37856000      24.59840000      10.22220000       0.01249510       0.01361170      -0.09025540
H        0.02482700      26.00550000      12.55550000      -0.01396230       0.02581260      -0.01072940
O        3.24393000      23.06990000      16.36410000       0.03382130      -0.08858910       0.05297410
H        2.70463000      23.27190000      14.77760000      -0.03011020       0.01759330      -0.08382660
H        3.23426000      24.53150000      17.21920000      -0.00387065       0.07604690       0.03371840
O        1.56483000       0.01379000       0.89199100       0.00501621       0.08858000       0.09038950
H        2.73792000      25.59960000       0.00779400       0.06633200      -0.05883820      -0.05764400
H        0.01165300      25.90520000       0.44652700      -0.07278800      -0.03078400      -0.03551460
O       13.32870000       1.97748000      11.51080000      -0.05264860       0.13696400      -0.02652440
H       14.32450000       0.66250800      11.36000000       0.07312390      -0.08575100      -0.01254600
H       14.07470000       3.34227000      10.29230000      -0.02363830      -0.04505900       0.04214740
O        1.58025000      15.24490000       9.41403000       0.04603270       0.18463600      -0.04264960
H        3.75759000      16.71610000       9.22775000      -0.08443330      -0.08777170       0.00409090
H        1.69624000      13.64410000       9.87093000       0.03381180      -0.10178600       0.03165290
O       11.27440000       5.69816000      25.68180000      -0.01213330       0.04350390      -0.04626480
H       11.84500000       4.10450000      26.20490000       0.00509393      -0.00814047       0.02962210
H       11.02990000       7.23659000       0.28919000       0.00454842      -0.03936720       0.01731200
O       11.42170000      24.67230000      16.91400000      -0.00535096      -0.04615790       0.13248300
H       11.64560000      24.91070000      15.30990000       0.01888340       0.02561070      -0.12875200
H       10.72030000      26.11610000      17.64260000      -0.02171340       0.03065860      -0.00354933
O       22.66290000      17.94770000       9.89435000      -0.02895920       0.02708390       0.00537647
H       21.62170000      16.52360000      10.11210000      -0.01533180      -0.01397350       0.00678789
H       24.22610000      17.18970000       9.68563000       0.04749670      -0.01439750      -0.00775553
O       19.68580000      12.77450000       5.88571000      -0.07677380       0.04586500       0.01179020
H       19.24090000      14.42180000       4.94797000      -0.00535897      -0.03021690       0.02145220
H       21.29820000      12.56630000       5.38273000       0.08380630      -0.01111930      -0.02312060
O        7.41952000      20.78110000      18.64030000      -0.05138230      -0.04955030       0.01881980
H        8.42648000      22.05990000      18.20350000       0.07609450       0.05886540      -0.01661840
H        5.95146000      21.52390000      17.86340000      -0.02225700      -0.01305690      -0.00207116
O       14.04380000      15.03900000      22.65990000      -0.06498530      -0.05131150       0.00461489
H       14.14160000      16.57150000      23.42010000      -0.00026946       0.06214020       0.03228840
H       15.59560000      14.86490000      21.98420000       0.06836390      -0.01662200      -0.03519880
O        9.80351000      21.66100000      25.40050000       0.11485600      -0.02385120      -0.00870378
H        8.70365000      21.77300000       0.28569000      -0.07499350       0.01095540       0.06272880
H        9.32421000      21.96680000      23.79570000      -0.03793340       0.01318180      -0.05604420
O       16.08620000       8.90735000      24.92320000       0.04252760      -0.05048030       0.01387230
H       14.37750000       8.89083000      25.01600000      -0.07226830      -0.03119160       0.00545616
H       16.14030000      10.57640000      24.61570000       0.03194220       0.08444240      -0.02151510
O       22.62590000      16.65560000      23.17750000      -0.06955240      -0.06226830      -0.00215048
H       23.95310000      17.31170000      23.96400000       0.07452150       0.03659120       0.04178170
H       22.25660000      17.59290000      21.75170000      -0.00667787       0.03466460      -0.03198690
O       10.18740000       8.14908000       4.32471000       0.01891370       0.00686157      -0.03449260
H       11.16900000       7.51773000       5.65346000       0.00491677      -0.00753170       0.02259150
H        8.58907000       8.70276000       4.86764000      -0.02259300       0.00366159       0.01192990
O        3.81315000       2.32793000      17.69850000      -0.00168567      -0.00168200      -0.00161110
H        5.36196000       3.03137000      17.15350000       0.02149380      -0.00375564      -0.01344690
H        3.42208000       3.68959000      18.80990000      -0.01775650      -0.00115990       0.02087680
O        9.37525000      12.64890000      20.35350000       0.06198840      -0.10391500      -0.04530590
H        8.05050000      13.65760000      20.31990000      -0.06947440       0.07698170       0.02077640
H       10.70860000      12.63770000      21.49290000       0.01265200       0.02956130       0.02407450
O       17.57900000      24.96560000      10.94520000       0.06134880       0.09802840      -0.03952670
H       16.80400000      23.61630000      11.51610000      -0.04678670      -0.10061000       0.03599450
H       19.37240000      24.83170000      11.23150000      -0.00870424      -0.00132919       0.00597104
O       12.64870000      10.32210000      15.84780000       0.05479290      -0.02900610      -0.04233740
H       11.41090000      11.02170000      16.81220000      -0.05031230       0.02552310       0.03027550
H       12.06580000       9.98891000      14.14820000      -0.00771429       0.00288072       0.01238080
O       19.45440000      20.83590000       6.41641000      -0.04413690       0.15445700      -0.13132900
H       20.15760000      19.99250000       7.64015000       0.07871640      -0.04682430       0.09706320
H       20.25130000      23.02400000       5.92591000      -0.02350640      -0.11136100       0.02836160
O       14.77040000      25.43910000      21.30660000      -0.02602910      -0.03103020      -0.12655100
H       13.76660000       0.06019000      22.24060000      -0.03631820       0.05254630       0.06961980
H       13.44830000      25.53310000      19.61950000       0.07073950      -0.02374680       0.05324800
O        1.90972000      10.94340000      21.86580000      -0.05402660      -0.08804220       0.08040770
H        0.66804000      11.94920000      21.27500000      -0.05600910       0.04384020      -0.03284780
H        3.34093000      11.44260000      21.24550000       0.11220600       0.04062970      -0.04963460
O       21.34110000      11.51730000      11.14870000       0.03519140       0.00767218      -0.16059000
H       20.34260000      12.51580000       9.13638000       0.04086120      -0.04564860       0.06552160
H       20.21710000      12.08130000      12.23140000      -0.07937610       0.03312510       0.08439580
O        2.38279000       9.94213000      10.76370000       0.04002170       0.00986839      -0.05900070
H        2.05254000       8.49484000       9.74952000       0.00501568      -0.00314810      -0.01499210
H        1.41516000       9.57084000      12.11460000      -0.04273700      -0.00680131       0.07528250
O       11.64280000      13.58440000       3.51777000       0.02957790       0.06879920      -0.02602860
H       13.21320000      14.50490000       2.83997000      -0.03708610      -0.03555430       0.02644980
H       11.85050000      11.84920000       3.77474000       0.01080680      -0.02940900       0.00018560
O       18.38150000       8.24035000       3.45064000       0.02386050      -0.05553380       0.01239680
H       17.34810000       8.56847000       2.08693000      -0.02488250       0.00309873      -0.04533220
H       18.36740000       9.66627000       4.42193000       0.00578571       0.05678120       0.02994850
O        1.88378000       5.27754000       2.38616000      -0.02353630       0.07809050      -0.06594930
H        1.25270000       3.87132000       1.58718000      -0.00678397      -0.04520640      -0.00805162
H        2.64842000       5.02396000       3.87353000       0.02982250      -0.03354680       0.07244710
O       25.57620000       9.36666000      15.16570000      -0.04048960      -0.07371270      -0.11580600
H       25.58100000      10.43430000      16.41190000       0.00573485       0.08528710       0.10178300
H       23.94640000       9.79630000      14.29030000       0.03263370      -0.01065800       0.01286460
O       15.11850000      19.85770000      25.34610000       0.02672910      -0.10145100       0.05232280
H       13.43660000      20.05780000      25.32260000      -0.07498410       0.02974910      -0.00397590
H       16.14800000      20.97020000      24.63890000       0.04867420       0.07093970      -0.04968770
O       22.03950000      26.14188000       5.23366000       0.02142490       0.04505490      -0.03980460
H       22.38840000       1.54207000       4.23409000      -0.01874730      -0.05928330       0.04621590
H       20.36370000      26.29615200       5.91427000      -0.00541693       0.02105740      -0.00584359
O        3.05475000       4.92174000      22.35970000       0.00533944      -0.06261400      -0.03849820
H        3.40857000       4.36661000      23.98810000       0.00479462       0.00164945       0.02911310
H        2.59902000       6.56416000      22.25240000      -0.01529880       0.06768870       0.01025880
O        9.37832000       3.83496000      16.32560000      -0.03975330      -0.04245240      -0.01284500
H        9.52277000       4.78565000      17.75740000      -0.03309530       0.03846320       0.06845000
H       10.98360000       4.27715000      15.96040000       0.07607650       0.00407108      -0.05311710
O       18.90450000      22.56030000      22.48250000      -0.01562740       0.02386900      -0.02293210
H       17.51040000      23.90270000      21.93370000       0.04209040      -0.05013210       0.00178294
H       19.68200000      21.53940000      21.07970000      -0.03052590       0.02478400       0.02231550
O        3.14475000      21.45140000      25.37300000      -0.10514100       0.08717260      -0.19920600
H        3.74187000      20.67550000       0.25699000       0.05364880      -0.10537100       0.14036000
H        1.90775000      20.56530000      24.03630000       0.05394960       0.01816720       0.05825880
O       16.69590000       0.71679900       6.19107000      -0.01688420       0.02920040      -0.02616780
H       15.73980000       2.35787000       6.30281000       0.02989160      -0.03582170       0.01000130
H       17.18890000       0.06653600       7.80497000      -0.01454970       0.00485143       0.01549790
O       16.52240000       6.16319000       8.24829000      -0.04245370       0.03225960      -0.05236760
H       17.20030000       7.27684000       6.88948000      -0.01560210      -0.02509520       0.01894400
H       17.92970000       5.74977000       9.15459000       0.05250040      -0.01557190       0.03353580
O        4.87850000       9.78057000       3.71858000       0.03322290       0.02517470       0.12176000
H        4.21443000       8.35110000       3.18124000      -0.04396800      -0.08619830      -0.04155170
H        5.13468000      10.82920000       2.45495000       0.01343630       0.06307740      -0.08168960
O        1.24425000      17.16690000      16.03090000       0.05722860      -0.04488420       0.00874204
H        2.96390000      16.62520000      15.21620000      -0.06857820       0.03625710       0.01784100
H        0.30789900      18.58640000      15.47750000       0.00848702       0.01704370      -0.02638650
O       23.49870000       1.41774000      13.46490000      -0.01354280       0.01086750       0.01812540
H       22.64830000       2.10979000      14.98840000       0.01204150      -0.01339060      -0.02294560
H       23.26310000       2.69894000      12.18790000      -0.00325170       0.00098911       0.00568397
O       24.86970000      14.29570000       4.33823000      -0.04074940      -0.02509770      -0.10798600
H       25.92530000      14.35900000       5.66187000       0.05887450       0.00408775       0.06131320
H       25.83990000      13.72020000       2.75644000      -0.02024160       0.02262240       0.05111740
O       20.88160000      18.71990000      18.56340000      -0.03835250      -0.01185480       0.07444140
H       20.73270000      16.99750000      18.15790000       0.00531631      -0.00944106      -0.02624030
H       21.69750000      19.92740000      17.65110000       0.03296490       0.02018900      -0.05497390
O        8.06621000       8.97904000      11.01580000       0.06249100      -0.03579460       0.00040268
H        7.44541000       7.29999000      11.23970000       0.00698980      -0.01139300       0.00534992
H        6.57066000       9.77785000      10.91560000      -0.06992210       0.04639640      -0.00361320
O        9.03052000       7.08175000      20.81300000      -0.00671190      -0.05338630      -0.02130450
H        9.25864000       8.71994000      21.25310000      -0.00978214       0.07447950       0.00390608
H       10.55210000       6.49128000      21.51710000       0.01511560      -0.02513230       0.01492280
