192
Lattice="23.99933 0.0 0.0 0.0 23.99933 0.0 0.0 0.0 23.99933" Properties=species:S:1:pos:R:3:force:R:3 TotEnergy=-1103.84993 cutoff=-1.0 nneightol=1.2 pbc="T T T"
O       13.43480000      21.20920000      16.45530000      -0.00509633       0.00045440      -0.00371156
H       12.04560000      21.16430000      15.29670000      -0.00149583       0.00012370      -0.00240793
H       12.72820000      20.78090000      18.08300000       0.00594105       0.00111813      -0.00340671
O       22.85750000      23.08360000      12.84970000       0.00140830       0.00093995       0.00096443
H       23.51150000      23.44440000      14.51550000       0.00382355      -0.00296381      -0.00735379
H       21.08570000      22.68830000      13.17090000       0.00045047       0.00653846      -0.00322134
O        1.43219000      21.29880000      17.74060000       0.00613566      -0.00193929       0.00148368
H        2.88058000      20.81320000      18.77270000      -0.00516877       0.00829133       0.00206191
H        0.02703700      21.15900000      18.88130000      -0.00405824      -0.00637465      -0.00030259
O        1.00534000      10.40830000       6.72352000      -0.00413569       0.00038972       0.00179156
H        0.41273900      10.87590000       8.39690000       0.00388234       0.00814001      -0.00151158
H        2.25041000       9.07551000       7.04034000      -0.00291592      -0.00187056       0.00500587
O        6.89091000       2.93993000       7.81133000       0.00025658       0.00227914       0.00056776
H        8.62367000       2.44642000       8.13296000       0.00221556       0.00754327       0.00129658
H        5.95822000       2.41797000       9.32909000      -0.00047999      -0.00571091      -0.00472723
O       15.14590000      11.18040000      17.39900000       0.00492604       0.00673651      -0.00673509
H       13.79630000      12.44120000      17.35750000       0.00070089      -0.00088287       0.00517369
H       16.62010000      12.05540000      18.01630000      -0.00409110      -0.00627753      -0.00040262
O        5.92818000       1.96360000      22.18640000      -0.00681401       0.00860562      -0.00674491
H        6.50104000       2.92188000      23.63680000       0.00834193      -0.00953390      -0.00557208
H        6.11618000       3.01759000      20.70820000       0.00726060       0.00064208       0.00454712
O        8.71769000      20.11600000       1.50508000      -0.00272435       0.00002684      -0.00001154
H       10.39330000      20.57380000       2.10826000      -0.00342519       0.00188722      -0.00120361
H        8.94676000      18.42980000       0.87723200       0.00216655       0.00169619       0.00362591
O       15.15230000      14.09750000       8.14099000       0.00032011      -0.00026016      -0.01004640
H       14.01200000      13.44000000       9.42032000       0.00525116       0.00674665      -0.00060434
H       14.11560000      14.39840000       6.68990000      -0.00103142      -0.00078953       0.00082228
O       12.46920000       2.99000000      14.26150000      -0.00142698       0.00399793       0.00497284
H       13.59080000       2.92301000      15.69800000       0.00595741      -0.00268773      -0.00350475
H       12.18440000       4.78734000      14.00480000       0.00168501      -0.00210579      -0.00115637
O       14.14500000       6.13070000       8.26576000       0.01259800      -0.00196290       0.00366362
H       15.84360000       6.69363000       8.69544000      -0.01302020       0.00822744      -0.00179729
H       13.17040000       6.39387000       9.75885000      -0.00065378       0.00313059       0.00770521
O       17.17380000       4.34416000       1.80011000       0.00415244      -0.00315787      -0.00239421
H       18.33560000       5.06124000       3.00658000      -0.00299659      -0.00054206      -0.00162234
H       16.60190000       2.78705000       2.55710000      -0.00344991       0.00783006       0.00400748
O        5.07310000      20.72520000      21.33660000       0.00639680      -0.00099716      -0.00756036
H        5.83494000      19.73010000      22.63640000       0.00316432      -0.00283458      -0.00662211
H        6.17882000      22.15740000      21.17680000      -0.00263544       0.00537171       0.00337664
O        9.61563000      19.23230000       9.90563000      -0.00382594       0.00016993      -0.00009887
H       10.72060000      17.80040000      10.06570000      -0.00302781      -0.00106681       0.00155756
H        8.28810000      18.79230000       8.73409000       0.00138803      -0.00357942      -0.00174645
O       20.48130000       1.88798000      23.00100000      -0.00079342      -0.00211798      -0.00757541
H       19.89960000       0.69792700      21.76080000      -0.00284394      -0.00103154       0.00275031
H       18.99160000       2.91730000      23.43500000       0.01015190      -0.00266551       0.00540389
O        3.31576000      20.05080000       2.36187000      -0.00449793       0.00192203       0.00038567
H        3.59171000      18.59200000       1.26410000      -0.00571323      -0.00066138       0.00191867
H        4.23296000      21.39590000       1.56242000       0.00170670      -0.00115834       0.00179153
O       20.22700000       6.64261000      19.08680000      -0.00121480       0.00176639       0.00221331
H       20.13140000       8.27319000      19.89620000      -0.00521563      -0.00381911       0.00463100
H       21.87610000       6.04257000      19.55450000       0.00110048      -0.00049774      -0.00331952
O       18.88870000      13.80950000      11.64950000      -0.00615206       0.00341661       0.00711048
H       17.44780000      14.26930000      12.69050000       0.01347150      -0.00124104       0.00177094
H       18.36890000      14.45140000      10.04190000      -0.00336136       0.00214266      -0.00982186
O       11.71510000       6.50753000       3.73786000      -0.00782743      -0.00039594       0.00450005
H       12.22070000       6.27975000       5.48702000       0.00619833       0.00247501      -0.00768589
H       10.38410000       5.31314000       3.41721000       0.00164389      -0.00159741      -0.00184741
O        7.35913000      21.58680000      14.43430000       0.00272698      -0.00336850       0.00598337
H        7.80720000      20.10880000      15.39200000      -0.00284025       0.00313774      -0.00230369
H        6.58009000      20.92720000      12.93890000       0.00401208      -0.00227316      -0.00025652
O        7.78068000      11.36130000       9.63639000       0.00400528      -0.00413105       0.00028481
H        7.85324000       9.90101000       8.55558000       0.00009215       0.00539948       0.00213751
H        6.04613000      11.86120000       9.67731000      -0.00245043      -0.00012436      -0.00064822
O       23.22070000       3.04139000       7.92111000       0.00936919      -0.00254945      -0.00785105
H       23.27380000       2.04147000       9.43987000       0.00111368      -0.00313420      -0.00017136
H        0.19787000       2.19653000       6.61514000      -0.00490476      -0.00331406       0.00917180
O        3.33099000      15.84510000      23.16550000       0.00166032       0.00189224       0.00174246
H        3.58299000      14.32060000       0.15137000      -0.00312346       0.00192655       0.00104819
H        1.56476000      15.82440000      22.72540000       0.00385498      -0.00105097      -0.00272433
O        0.07307000      12.87040000      11.39350000       0.00162197      -0.00053539       0.00224347
H        1.17247000      13.63140000      12.62180000      -0.00095244       0.00018924      -0.00162194
H       22.38950000      13.42880000      11.83960000      -0.00068562      -0.00007361       0.00012283
O       17.00020000      10.13270000       4.25049000       0.00071625       0.00467028      -0.00402007
H       17.59970000      11.83480000       4.38255000       0.00425951       0.00003804       0.00478171
H       18.48910000       9.09929000       4.25462000      -0.00620492      -0.00078143       0.00046069
O       11.13070000       0.62245800       9.43399000      -0.00820919       0.00294547       0.00378028
H        9.53335000      23.83370100       9.81147000       0.01205860      -0.01257950       0.00211604
H       11.83240000       1.01876000      11.07130000       0.00111333       0.00439198       0.00160004
O       18.71290000       8.74878000      10.94320000       0.00482636      -0.02212610      -0.00891909
H       19.90250000       7.93889000       9.81031000      -0.00371691       0.00987997       0.00194582
H       18.99840000      10.55290000      10.83870000      -0.00291498       0.00081437       0.00461018
O        7.45211000       2.59782000      15.90800000       0.00352157      -0.00528335       0.00993698
H        6.94734000       0.87943800      15.50040000       0.00061509       0.00541940      -0.00068244
H        9.26891000       2.46772000      16.09170000      -0.00288776      -0.00262652      -0.01109250
O       12.25730000      18.08320000      20.69560000      -0.00644223       0.00468354       0.00287878
H       11.25280000      16.94960000      21.74580000       0.00607405       0.00286317       0.00705525
H       12.86400000      19.30940000      21.89030000       0.00234268      -0.00046918      -0.00733451
O        0.73603800       4.56325000      14.59410000      -0.00459101      -0.00044989      -0.00527066
H       22.97997000       4.91231000      14.16040000       0.00616638      -0.00527963       0.00201613
H        0.58347600       3.91305000      16.28500000       0.00541140       0.00329870       0.00523465
O        0.87650500      19.53730000       9.76193000       0.00002163      -0.00175058      -0.00114422
H        1.37985000      18.66820000      11.31030000      -0.00126801       0.00135377       0.00000116
H       23.92726600      20.98770000      10.37160000       0.00417986      -0.00229645       0.00499107
O        3.76426000       9.38172000      16.52490000       0.00396243       0.00346900      -0.00347400
H        3.03568000       8.92063000      14.93470000       0.00212794      -0.00682958       0.00107651
H        5.31127000       8.42958000      16.79960000      -0.00589290       0.00092291       0.00073482
O       12.75410000      10.80690000       1.12385000       0.00446777      -0.00634584      -0.00372523
H       12.49420000       9.33271000       2.24439000      -0.00337431       0.00460146      -0.00523424
H       14.43050000      11.35960000       1.54327000       0.00322256      -0.01060700       0.00134189
O       21.19120000      18.91550000      20.27960000       0.00309487      -0.00555397      -0.00722677
H       20.11170000      19.56640000      21.55450000      -0.00905063       0.00175339       0.00747532
H       20.10340000      18.04080000      19.09400000       0.00512419       0.00548386       0.00069353
O        7.71265000       6.78887000      18.85060000       0.00368103       0.00110434      -0.00289287
H        7.72588000       5.31115000      17.77320000      -0.00420461       0.00052300      -0.00003676
H        9.48538000       7.18475000      19.19010000      -0.00438516       0.00050690       0.00317652
O       20.95010000      14.25650000       2.64557000       0.00032018      -0.00493795       0.00199373
H       21.64110000      15.75600000       3.46690000       0.00193588      -0.00336857       0.00019912
H       22.19400000      12.98020000       2.95234000       0.00224257       0.00092960       0.00010556
O        7.08868000      13.94930000       3.83651000       0.00020169       0.00313928       0.00692245
H        5.60951000      12.86370000       3.81682000       0.00526209       0.00348004      -0.00921665
H        6.60024000      15.24220000       5.01646000       0.00275137       0.00362893       0.00292316
O        8.12226000       2.10527000       2.90459000      -0.00342495       0.00202927      -0.00310331
H        7.14433000       2.00026000       4.46100000       0.00445510      -0.00105875      -0.00289069
H        8.53802000       0.42244500       2.35383000      -0.00238102       0.00257122       0.00447893
O       11.05070000      15.43700000       0.62831300      -0.00836142       0.00046191       0.00449839
H        9.66572000      14.89680000       1.72379000       0.00043818      -0.00229110      -0.00005017
H       11.91540000      13.83980000       0.37152400      -0.00383944      -0.00429913       0.00260218
O        2.84978000      17.92520000      14.21730000       0.00523051      -0.00724954       0.00184638
H        2.21377000      18.69850000      15.76930000      -0.00433082       0.00558000      -0.00859138
H        4.34720000      17.03600000      14.74160000      -0.00427863      -0.00602836       0.00030489
O        1.06535000      10.78900000      20.54780000      -0.00474875       0.01759070       0.02980890
H        1.63967000      10.46080000      22.26080000      -0.00623601       0.00167063      -0.01223580
H        1.47192000       9.31447000      19.63110000       0.00911430      -0.01283450      -0.01495130
O       19.36980000       4.26666000      14.48860000      -0.00314819       0.00040188       0.00318830
H       18.83190000       5.16383000      13.01370000      -0.00323883       0.00302428      -0.00050313
H       18.74710000       5.26938000      15.89160000       0.00854848      -0.00126284      -0.00365800
O       17.89000000      18.61410000       3.24582000      -0.00381390       0.00089523       0.00189354
H       17.77240000      16.98620000       4.04031000      -0.00074179       0.00275082      -0.00262569
H       19.49580000      19.24930000       3.83617000      -0.00226987       0.00093063       0.00195862
O       12.22110000       8.29609000      13.42770000      -0.00932218       0.00016489       0.00290710
H       10.88280000       9.22324000      14.25590000       0.00462115      -0.00538012      -0.00513351
H       13.75300000       8.94597000      14.14130000       0.00544039       0.00425304       0.00159753
O       11.15160000      14.41380000      17.55840000      -0.00243934      -0.00129105      -0.00102597
H        9.59187000      13.91160000      18.36120000      -0.00252878      -0.00228902      -0.00881885
H       11.63330000      15.97290000      18.39850000       0.00467090      -0.00167311      -0.00626207
O       19.74690000      11.03290000      21.97360000      -0.00836144       0.01367270       0.00543499
H       20.84860000      11.94250000      20.85380000       0.00751512      -0.00018492       0.00478783
H       19.74260000      12.02880000      23.52150000      -0.00078664      -0.00597658      -0.01085680
O       15.04050000      22.79240000      21.65780000      -0.00350468      -0.00025973       0.00120452
H       14.45730000       0.50357000      21.44410000       0.00674009      -0.00322653      -0.00785890
H       14.33870000      22.31930000      23.28600000       0.00497214       0.00596028       0.00374472
O       23.03210000      18.42500000       5.07037000      -0.00098219       0.00026667      -0.00323282
H        0.18487000      19.07780000       3.82238000       0.00459859       0.00266513       0.00177436
H       23.88620000      18.64270000       6.69756000      -0.00817062      -0.00229557      -0.00139941
O        3.62405000       6.67099000       8.60435000       0.00097139      -0.00016551       0.00465025
H        2.46459000       5.31181000       8.97974000      -0.00107620       0.00437835      -0.00075464
H        5.25104000       5.83899000       8.49043000      -0.00119857      -0.00057141      -0.00604028
O       13.47300000      21.75790000       2.34039000       0.00484106      -0.00087300       0.00558218
H       14.43840000      20.22460000       2.53144000       0.00711234      -0.00093291       0.00568198
H       14.38140000      22.97400000       3.38416000      -0.00700650      -0.00215626       0.00195051
O        5.06682000      18.29770000       6.99566000       0.03727300      -0.05318670       0.09084620
H        4.66695000      19.05990000       5.56523000      -0.02519830       0.05033280      -0.09198460
H        3.77153000      18.70520000       8.20242000      -0.00447688       0.00276718      -0.00076376
O       11.84270000      14.19880000      11.97210000      -0.00495377      -0.00463559       0.00195117
H       11.67710000      14.01660000      13.77990000      -0.00142066       0.00520763      -0.00110686
H       10.54650000      13.12130000      11.25730000      -0.00325037       0.00123824       0.00167792
O       15.63560000       3.53212000      18.98240000      -0.00524599      -0.00135853       0.00642604
H       14.16320000       4.35907000      19.69810000       0.00747031       0.00679285      -0.00085816
H       17.04960000       4.42282000      19.73310000      -0.00195081       0.00163370      -0.00591106
O       15.08030000       1.43619000       5.98243000      -0.00720654      -0.00830004      -0.00275642
H       13.42740000       1.47244000       6.78374000       0.00499627      -0.00798585      -0.00208481
H       15.80870000       2.91807000       6.69995000       0.00341185       0.00538108      -0.00011897
O       12.60110000       7.76148000      20.20950000      -0.00037494       0.00143953       0.00279999
H       13.66030000       8.69107000      19.02910000       0.00123096       0.00192284       0.00349852
H       12.70440000       8.75414000      21.74900000      -0.00098489      -0.00338039       0.00155070
O        3.61255000       6.71291000       1.46957000      -0.00968348       0.00015360       0.00688451
H        4.34684000       5.15094000       0.93803600       0.00170593       0.00052680      -0.00054426
H        2.13129000       6.14941000       2.36261000       0.00353493      -0.00044275      -0.00253402
O        5.58844000      14.30220000      17.74620000       0.00661325       0.01015220       0.01101690
H        5.46236000      15.25470000      19.30010000      -0.00577093      -0.00294912      -0.00343839
H        4.47348000      12.87880000      17.99440000      -0.00094530      -0.00480284      -0.00418024
O       18.14170000      17.70730000      15.35390000       0.00167574       0.00080167       0.00455200
H       16.97310000      18.73420000      16.30040000      -0.00404345      -0.00020037      -0.00466163
H       19.06020000      18.94940000      14.37980000      -0.00309868      -0.00723984       0.00564015
O        4.07140000       1.35956000      11.58870000      -0.00234224      -0.00430370      -0.00127589
H        3.43713000      23.66266000      11.71220000      -0.00385630       0.00585882       0.00133459
H        3.20033000       2.38715000      12.83310000      -0.00421071      -0.00009001      -0.00014005
O       21.10020000       7.10983000       5.64339000       0.00336955       0.00435880      -0.01457900
H       21.97180000       8.63196000       5.11803000       0.00186423      -0.00480351       0.00999987
H       22.46790000       5.92682000       5.88462000      -0.00877233      -0.00177021       0.00833970
O        2.75754000      11.70950000       2.41146000      -0.00608968      -0.00403189       0.00199345
H        3.46921000      10.02910000       2.23282000      -0.00103055      -0.00025322      -0.00515709
H        1.80938000      11.61950000       4.01676000       0.00806580       0.00071141      -0.00391751
O        0.78522600       3.81893000      20.13250000       0.00040263      -0.00382959       0.00479607
H        2.28733000       3.28201000      21.01510000      -0.00018685       0.00151532      -0.00287410
H       23.45017300       3.04069000      21.10320000      -0.00378533      -0.00112508       0.00198838
O        1.01368000       1.49540000       2.35400000      -0.00656084       0.00356843       0.00571650
H        1.15133000      23.71071200       2.04395000      -0.00049002       0.00158630       0.00069800
H       23.33464700       1.91819000       1.76228000       0.00266060      -0.00429204      -0.00371141
O       18.22050000      22.87060000      14.38220000       0.00750233       0.01125320       0.00629026
H       18.24260000       0.43417000      15.34010000      -0.00013762      -0.00198679      -0.00892508
H       16.49070000      22.45330000      14.20230000      -0.01493460      -0.00336122       0.00187312
