192
TotEnergy=-1102.27376000 cutoff=-1.00000000 nneightol=1.20000000 pbc="T T T" Lattice="25.51241000       0.00000000       0.00000000      -0.00000100      25.51241000       0.00000000      -0.00000100      -0.00000100      25.51241000" Properties=species:S:1:pos:R:3:force:R:3:Z:I:1
O              13.81750000      0.35331000      4.51542000      0.15032800      0.01900480      0.22663000       8
H              13.07520000      0.14629500      3.21584000     -0.14473300     -0.03407590     -0.25005300       1
H              13.09500000      1.67953000      5.43207000     -0.00664020      0.01901260      0.01183700       1
O              23.77850000      2.90502000     10.32020000      0.02905200      0.02999260     -0.03207940       8
H              23.65800000      4.19032000     11.66200000      0.00913061     -0.01557840     -0.01024730       1
H              24.86080000      3.64760000      8.90035000     -0.03173650     -0.01711110      0.04217130       1
O              14.45210000      0.11022000     17.81240000      0.03534290     -0.01829350      0.16414700       8
H              14.37180000     -0.32976200     16.23130000     -0.00771907     -0.02683350     -0.12392700       1
H              15.36550000     24.12800000     18.67220000     -0.02665150      0.03903430     -0.02115620       1
O              24.95670000     15.87700000      0.00336100      0.04822450      0.25912200     -0.06594670       8
H              24.88700000     14.36220000      0.24992800     -0.00664040     -0.25571000      0.04540580       1
H               1.02838000     16.18340000     24.49690000     -0.03509640     -0.00941837      0.02052140       1
O              17.29060000     11.66980000     -0.02456700      0.07291430     -0.04570340      0.01951830       8
H              17.27380000     10.37770000     -1.33715000     -0.01592430      0.01124670      0.00592984       1
H              18.94630000     10.92400000      0.85778900     -0.05794170      0.02927850     -0.02296290       1
O               0.29893100     20.25470000      3.95396000      0.01781940     -0.00593304      0.00408276       8
H              -0.04684700     19.03120000      2.66796000     -0.00233790     -0.00554943     -0.00010866       1
H              24.26300000     21.09220000      4.23290000     -0.01742940      0.01215930     -0.00516940       1
O              20.12470000     16.82210000     23.71570000      0.01552130     -0.00689727     -0.00612617       8
H              19.33300000     18.01790000     24.84550000      0.01117570     -0.01662510      0.00758509       1
H              21.65320000     15.92510000     24.43910000     -0.03306930      0.03505220     -0.00745838       1
O              24.58390000     10.95720000      8.79848000      0.00327386      0.02085120      0.03439590       8
H              23.48560000     12.43410000      9.18856000      0.01979530     -0.01876650     -0.00630168       1
H               0.46335000     11.06340000     10.10530000     -0.02251020      0.00381458     -0.03094230       1
O               8.13787000      8.07160000     10.31630000     -0.05518240      0.03841130      0.07469280       8
H               9.36070000      7.79687000     11.74030000     -0.02632530      0.01269550     -0.02958880       1
H               6.53607000      9.44671000     11.23190000      0.06725460     -0.06237810     -0.04021400       1
O               8.23880000      5.31298000     22.69010000      0.24301600      0.00729835     -0.10912500       8
H               7.73485000      4.69632000     24.01620000     -0.06568410     -0.09836160      0.21377100       1
H               6.91153000      5.86524000     22.06890000     -0.17482800      0.09069460     -0.09949080       1
O               4.39904000      7.51752000     14.91790000      0.18943200      0.14942700      0.06518360       8
H               4.56334000      6.25573000     13.98650000      0.03921620     -0.16189500     -0.11950600       1
H               2.87793000      7.46714000     15.22780000     -0.23228000     -0.00002977      0.06352380       1
O              21.33000000     15.97930000     10.47300000     -0.03470380     -0.00324489     -0.07540410       8
H              20.93020000     16.75010000      8.67557000      0.01485180     -0.01870930      0.05911070       1
H              19.88170000     14.76890000     10.54140000      0.02412340      0.02397750      0.00978199       1
O               9.01209000     22.33270000      4.85025000     -0.02368130     -0.02471980     -0.05546860       8
H               9.64233000     22.82650000      6.39368000      0.03276900      0.01516120      0.02627820       1
H              10.17970000     22.23480000      3.42098000     -0.00494664      0.00709711      0.02685340       1
O              22.58180000     23.12590000     21.34160000     -0.08732420      0.09057380      0.01458940       8
H              22.74950000     -0.93581800     20.14280000      0.00009539     -0.02877870      0.02411950       1
H              23.79970000     22.07300000     20.91580000      0.08137890     -0.05506140     -0.02788230       1
O               8.93442000      0.26138500     20.13270000      0.01602810      0.00997228     -0.02532910       8
H               9.08158000      2.00563000     20.69510000      0.00254868     -0.00709372     -0.00732496       1
H              10.10500000      0.06767000     18.65090000     -0.01754200      0.00524352      0.03441890       1
O              18.73560000      2.97489000      9.26522000     -0.10520500     -0.22523200      0.16040200       8
H              20.38750000      2.70887000      9.34348000      0.10579700     -0.03886240      0.02328490       1
H              18.85900000      4.20399000      8.40882000     -0.00553012      0.26023600     -0.18083300       1
O               4.77220000     12.47850000     23.17090000     -0.05362230     -0.04637500     -0.02588560       8
H               5.13178000     11.43130000     21.64430000      0.01216770      0.01702250      0.01865400       1
H               6.01192000     13.56560000     23.72200000      0.03515650      0.02214890      0.00075190       1
O              17.80220000      3.24272000     21.79390000     -0.00923536     -0.00967724      0.07339960       8
H              16.72360000      1.80452000     22.22680000      0.00967647      0.01354150     -0.00163052       1
H              17.82200000      3.26702000     20.09220000     -0.00064441     -0.00677284     -0.07448370       1
O               7.42014000      7.14652000      5.27701000      0.04353870     -0.05021610     -0.04287180       8
H               7.25214000      7.41477000      6.95653000      0.01102690      0.00993439      0.07806010       1
H               6.08236000      8.03352000      4.69454000     -0.04914000      0.04666280     -0.03773220       1
O               3.76787000      0.79823600     17.06950000      0.03837440      0.00089212      0.01034680       8
H               5.23438000     25.70780000     15.94730000     -0.03716490      0.01516780      0.04498520       1
H               4.30318000      1.18478000     18.88330000      0.00842706     -0.01878550     -0.06196700       1
O              17.14340000     15.42520000     13.28980000      0.12669700     -0.06380100      0.05096180       8
H              16.89510000     14.67940000     14.94090000      0.00159073      0.01153150      0.00132662       1
H              15.72360000     16.02690000     12.79570000     -0.13269300      0.05406400     -0.04122000       1
O               1.16339000     12.31340000     16.71420000      0.15100900     -0.28628800     -0.05957320       8
H               0.18107800     13.33840000     16.28440000     -0.22558800      0.23639100     -0.09920430       1
H               1.81916000     12.71120000     18.10260000      0.07709180      0.04405420      0.16053200       1
O               3.62570000     22.20470000     13.46100000     -0.03977550     -0.00368200     -0.01401390       8
H               2.78962000     21.80010000     15.13500000      0.00582196      0.01449560     -0.04552720       1
H               2.31851000     22.53650000     12.01180000      0.03535890     -0.01490330      0.05864700       1
O               3.17187000      4.11684000      5.08950000     -0.01541050     -0.03099780      0.03486650       8
H               4.83974000      4.76632000      5.15523000      0.02247560      0.01284370     -0.00430582       1
H               3.20401000      2.97667000      6.59508000     -0.01158430      0.01671880     -0.02951100       1
O              14.74000000      2.10284000     13.67340000      0.03630580      0.01326130     -0.02509590       8
H              16.68260000      1.86420000     13.38790000     -0.06961620      0.01585730     -0.00964762       1
H              13.75990000      2.83152000     12.23470000      0.03524870     -0.02053450      0.01502280       1
O              -0.21387400      2.27578000     19.68390000      0.04367870      0.00486151      0.05552430       8
H              -1.03145000      2.89732000     21.19720000     -0.01840120      0.00375361     -0.00782061       1
H               1.47908000      2.20570000     20.59650000     -0.03622840     -0.00354688     -0.03635010       1
O               0.03779500     11.40310000      3.42842000     -0.02000750     -0.03740710      0.00337781       8
H               0.46621100     10.75840000      5.07375000     -0.01214660     -0.01496730      0.00384922       1
H               0.92643200     12.87240000      3.64683000      0.02939740      0.05066240     -0.00946770       1
O              10.91910000     12.23110000      9.78318000     -0.02412080     -0.02414120     -0.08571270       8
H              10.30230000     13.44240000      8.49597000      0.00603170     -0.02589890      0.00754619       1
H              11.35510000     13.31290000     10.99160000      0.02527810      0.05822400      0.07924900       1
O              16.32810000      7.48971000     15.24990000      0.01517480      0.03428350      0.04613020       8
H              16.16740000      7.76105000     13.51620000     -0.00888254     -0.00949151     -0.03807650       1
H              15.54450000      6.02221000     15.95190000     -0.00993235     -0.01147880     -0.01469190       1
O              24.34630000      4.96228000     15.31150000     -0.01723480      0.03627570     -0.00050605       8
H              25.20420000      3.86971000     16.56030000     -0.02056700      0.01822100     -0.00046061       1
H              23.19640000      6.34689000     16.00810000      0.04042800     -0.04729130     -0.00128704       1
O              13.69060000      7.46501000     22.85340000      0.14732600     -0.03005640     -0.01341700       8
H              12.07720000      7.38024000     22.81470000     -0.16668700      0.01232180      0.00695615       1
H              13.90410000      5.84872000     21.96730000      0.02021500      0.01385020      0.01136780       1
O              20.75060000      8.69507000     19.35460000     -0.07819310     -0.07693830      0.01509240       8
H              19.57080000      7.17278000     20.61540000      0.05635370      0.07359690     -0.05662360       1
H              19.81790000      8.48050000     17.68330000      0.01795660      0.00219028      0.04019650       1
O              18.90140000     14.50720000     18.26710000      0.02621470     -0.04726240     -0.01860050       8
H              18.57870000     15.08140000     19.97880000      0.00583439     -0.01868290      0.00003676       1
H              19.84060000     12.75470000     18.07160000     -0.03554620      0.06281070      0.03013900       1
O               8.30351000     22.27550000     24.26970000      0.15666300      0.01123080     -0.04872930       8
H               8.70486000     24.00570000     23.75390000     -0.00743386     -0.02367720     -0.00118769       1
H               6.76921000     22.18780000     24.77550000     -0.14490300      0.00281255      0.05264210       1
O               5.51685000     11.77220000      2.74246000      0.02570650      0.05197150      0.06677580       8
H               6.01813000     11.07740000      1.22232000      0.01593290     -0.01074190     -0.03450680       1
H               6.87685000     13.01930000      3.42935000     -0.04090020     -0.03872250     -0.02388820       1
O               7.66103000     16.36200000      5.39735000      0.10137700     -0.02368340     -0.13087900       8
H               9.30326000     17.33600000      5.09592000     -0.04902340     -0.02316520      0.00838786       1
H               7.06946000     16.83660000      6.84296000     -0.05326910      0.04353890      0.12276200       1
O              18.05520000     18.64840000      5.80138000     -0.17103200     -0.18714300      0.10194000       8
H              16.51600000     19.17910000      7.12424000      0.06795510     -0.02208900     -0.05837960       1
H              18.73430000     20.02050000      5.55705000      0.10733800      0.21019100     -0.04213320       1
O              -0.28600900     19.73100000      9.63030000      0.01476490      0.14323300      0.05545570       8
H               0.03293900     19.93840000      7.99844000      0.01844790     -0.00287947     -0.09205460       1
H              24.91070000     18.23910000     10.15930000     -0.03487680     -0.14138500      0.03603510       1
O              21.42060000      7.81480000      1.76915000     -0.40249800     -0.01965020      0.04168920       8
H              21.40410000      8.34814000      3.46448000     -0.02749430      0.00310311      0.02968600       1
H              22.84970000      7.89255000      1.62586000      0.42733600      0.01848240     -0.07179860       1
O              19.04120000     22.11320000     13.70840000     -0.23130600      0.11346800      0.19715200       8
H              18.62580000     20.60370000     14.73560000     -0.01360870      0.03090630      0.00214168       1
H              20.06600000     21.36530000     12.93180000      0.24242400     -0.14392200     -0.19792200       1
O              16.72970000     20.84710000     20.36650000      0.06759490     -0.03840530      0.07871190       8
H              18.73880000     19.99800000     21.39980000     -0.08727670      0.03915580     -0.04992500       1
H              15.51770000     20.53230000     21.79770000      0.01509040     -0.01212220     -0.03390700       1
O              11.50850000     16.26950000     13.98610000     -0.01538040     -0.03574240      0.02043490       8
H              11.46710000     17.54690000     12.76980000     -0.00732888      0.03312910     -0.01515570       1
H               9.74031000     15.91530000     14.39000000      0.01858840      0.00555132     -0.00441406       1
O               5.12717000     17.88140000     21.13360000     -0.10349500     -0.09589790     -0.09173740       8
H               6.09348000     18.78860000     22.02460000      0.10367000      0.11158800      0.10117400       1
H               6.28500000     16.66820000     20.48530000     -0.00093283     -0.01266180     -0.00886135       1
O               3.41241000     11.44020000     11.76530000     -0.03550750     -0.04837680     -0.01792790       8
H               4.64712000     12.66110000     12.12540000      0.00217434      0.01831770      0.02368880       1
H               2.57823000     10.39320000     13.10610000      0.03950910      0.04073700     -0.00994611       1
O              19.87370000      8.05935000      7.64706000     -0.03927890      0.00437565      0.04521020       8
H              18.73870000      8.42169000      9.18106000      0.01375830     -0.00729498     -0.05086490       1
H              21.33650000      8.81573000      8.33054000      0.02936360      0.00589288     -0.00270601       1
O              10.08320000     14.50950000     19.80420000      0.02443250      0.00321210     -0.03530720       8
H              10.48720000     16.02110000     18.79150000     -0.00510976     -0.01392690      0.01912570       1
H              11.35840000     13.31930000     19.05790000     -0.01929890      0.00554110      0.01551100       1
O              12.79960000     17.78990000     23.97220000      0.06540460      0.28457900     -0.19745700       8
H              11.59720000     18.70700000     24.64420000     -0.08029780      0.06313750      0.04420700       1
H              12.86270000     16.45260000     -0.94937800      0.01770410     -0.33997100      0.15229900       1
O               3.52206000     23.94370000      0.46169900     -0.03283590     -0.00578624     -0.01241990       8
H               1.89494000     23.18930000      0.98544100      0.02401860      0.00690889      0.00479490       1
H               3.00946000     24.74870000     24.41190000      0.00661231     -0.00155399      0.00736270       1
O               6.59611000      9.18921000     19.57250000     -0.00997501     -0.00384225     -0.02323720       8
H               8.19457000     10.10540000     19.60260000     -0.00883630     -0.01346750     -0.01525930       1
H               6.11629000      8.50252000     17.84550000      0.01836680      0.02118490      0.03309870       1
O               2.72683000      6.34459000     24.92160000     -0.01955330      0.09019550      0.08311990       8
H               2.41184000      9.27957000     24.73880000      0.01504940     -0.09980460      0.01030220       1
H               2.58785000      6.16266000      1.52364000      0.00586912      0.00976666     -0.09187030       1
O              11.16980000     21.69480000     12.54060000      0.09645250     -0.06338590      0.07563450       8
H               9.95241000     22.35010000     11.56710000     -0.03186390      0.04465950     -0.05933540       1
H              13.08050000     21.76100000     12.34660000     -0.06220630      0.01965500     -0.01924010       1
O               9.85654000      1.95420000      9.68130000      0.19896700      0.03672850      0.30751200       8
H               9.00746000      3.50587000     10.29610000      0.02644610     -0.01090740      0.02110330       1
H               8.95171000      2.00399000      8.53874000     -0.22615900     -0.02359430     -0.32894200       1
O              14.82680000     23.60910000     -0.47575500     -0.14366600     -0.02383030     -0.22552900       8
H              15.82930000     22.76780000     23.68090000     -0.02032120      0.02150210      0.02249380       1
H              15.82020000     23.67060000      0.68843000      0.16904000      0.01356770      0.20649200       1
O              23.35260000     15.99280000     16.06560000     -0.02580280      0.00329845      0.06026350       8
H              22.26330000     16.80080000     14.92330000     -0.00917070      0.00746856     -0.02729040       1
H              22.13180000     15.99040000     17.59580000      0.03195600     -0.00768597     -0.04019000       1
O              23.29450000      2.33010000      0.51299300     -0.17521300     -0.16933100     -0.01014200       8
H              21.77310000      3.18731000      0.28767300     -0.01650280      0.02492360     -0.00068289       1
H              24.56230000      3.21094000      0.55309100      0.19146800      0.14684800      0.00835792       1
O              14.47850000     14.68580000      3.41002000     -0.11629400     -0.02866480     -0.04004070       8
H              15.15580000     13.47480000      2.28098000     -0.01431220     -0.02675840     -0.02896770       1
H              15.96990000     15.03600000      3.95825000      0.12629700      0.05655180      0.06856070       1
O              13.00360000      6.10822000      3.68973000      0.00724371      0.05666630      0.06621240       8
H              12.18070000      7.80559000      3.81085000      0.01351350     -0.03865810     -0.00593270       1
H              12.54870000      5.39172000      2.20551000     -0.01751550     -0.01991280     -0.05865910       1
O              16.25770000     10.74970000     10.43280000     -0.02140210     -0.01609310     -0.00886938       8
H              14.51930000     11.18980000      9.80507000      0.02803540     -0.00245921      0.01529800       1
H              16.80470000     11.78600000     11.80150000     -0.01068530      0.01584540     -0.00076587       1
O              15.68610000     23.61970000      8.53491000      0.04408170      0.01834630      0.01852230       8
H              16.63340000     23.71230000      6.92230000     -0.02004540      0.00936120      0.02707530       1
H              16.63780000     24.82970000      9.71899000     -0.02442890     -0.03311270     -0.03852940       1
O               4.34379000     24.25060000      6.54595000     -0.00778619      0.02437630      0.02365530       8
H               5.07166000     25.55120000      5.45739000     -0.00488028     -0.04107460     -0.00583516       1
H               4.36621000     22.50600000      6.04494000      0.01098230      0.01588260     -0.01846810       1
O               0.60718700     20.58370000     18.89130000      0.01606410      0.09983940     -0.06463880       8
H               1.90920000     19.97900000     19.75180000      0.07245700     -0.04655740      0.04955660       1
H              24.69950000     19.73400000     19.05330000     -0.07660980     -0.06878750      0.00397605       1
O              21.32460000     22.55670000      1.43621000      0.02487350      0.01549710     -0.07900680       8
H              21.80210000     21.77090000     -0.25636400     -0.01556550     -0.00521003      0.04081490       1
H              21.82200000     24.19420000      0.58618500     -0.01036390     -0.00946731      0.03872600       1
O               4.61205000     16.86570000     10.69170000      0.11858400     -0.17105600     -0.14410600       8
H               3.01736000     17.01170000     10.74210000     -0.17749000     -0.00478456     -0.01853060       1
H               4.83157000     17.98170000     11.74540000      0.06637770      0.17913400      0.16349100       1
O              12.80570000      9.82756000     18.26120000      0.05179870      0.00873842     -0.07958970       8
H              13.82370000      9.45060000     19.68510000      0.00522475     -0.00296849      0.01652890       1
H              14.78200000      9.57475000     16.39330000     -0.06020520     -0.01238060      0.06051830       1
