192
Lattice="24.56164 0.0 0.0 0.0 24.56164 0.0 0.0 0.0 24.56164" Properties=species:S:1:pos:R:3:force:R:3 TotEnergy=-1103.41466 cutoff=-1.0 nneightol=1.2 pbc="T T T"
O        1.84476000      21.95350000      14.22628000      -0.07619470      -0.01327930       0.01739870
H       24.39460000      21.65260000      14.59568000       0.06524650       0.01017190      -0.00413256
H        2.39216000      20.35810000      13.47048000       0.00645055       0.01258920       0.00034845
O        2.14752000      23.51096000      23.46723000      -0.01455540      -0.01240320      -0.08110050
H        3.72232000      24.33066000      23.62009400       0.02851710       0.01082450       0.03034810
H        2.48742000      23.23716000      21.45790000      -0.02181300      -0.01368560       0.06135130
O       14.32520000       2.02365000      16.62070000       0.01246560       0.03359580       0.02348460
H       14.74670000       2.98651000      18.25520000      -0.00735528      -0.01312310      -0.03013890
H       13.61860000       0.48550400      17.19630000      -0.01256710      -0.02055070       0.00360929
O       21.07839000      12.39114000      23.62130500       0.01413840      -0.05557100      -0.03972870
H       21.63486000      12.52254000      21.82981000       0.00332242      -0.01879620       0.01885700
H       20.61092000      14.02814000      23.81949800      -0.00968750       0.06990520       0.02025530
O        3.57839000       9.44576000      17.32120000       0.00745375      -0.05405040      -0.00000559
H        4.90025000       9.40266000      18.65630000      -0.01029960       0.00744554      -0.01703580
H        3.63914000       7.59256000      16.68950000       0.00123787       0.05435780       0.01515080
O       18.15448000      10.75510000       7.52896000      -0.00604215       0.06514780       0.02804510
H       17.46710000      12.72080000       7.78100000       0.01378510      -0.07015680      -0.01867200
H       17.32364000       9.91769000       6.16666000      -0.01160800       0.00084963      -0.00844568
O       20.89856000       4.38356000      14.02340000       0.06666270       0.07861660       0.02072990
H       22.26076000       3.88246000      12.93370000       0.04475120       0.02784710       0.00814581
H       20.10866000       3.14196000      13.29470000      -0.11278000      -0.10983800      -0.03715330
O        0.46412100      17.54538000       7.69703000       0.01788460       0.08473810       0.07946480
H        1.59998000      18.35618000       9.53031000      -0.03650690      -0.04363600      -0.08011560
H       24.04904800      19.25848000       7.42186000       0.02212670      -0.04491930       0.00098620
O        6.84576000      14.99338000      17.56270000       0.05861270      -0.01511500       0.04957170
H        5.37086000      15.30608000      16.74890000      -0.06330430       0.01278910      -0.03439420
H        6.40076000      13.94518000      19.02410000       0.00715939      -0.00051891      -0.01279750
O        9.78761000      21.57488000      24.30348000       0.03918400       0.00685258      -0.02310910
H       11.57930000      21.37668000       0.16854000      -0.01713910      -0.00051215      -0.00871714
H        8.72258000      21.21598000       1.13844000      -0.01555860      -0.01355180       0.02813030
O       11.05814000       3.14396000       9.20270000      -0.00014383      -0.00832441      -0.01841950
H       12.59884000       3.63009000       8.36250000      -0.00822928       0.00496367      -0.00002870
H       10.73454000       4.27112000      10.58190000       0.00530530       0.01128160       0.01746580
O       13.12984000       3.60246000       3.40882000       0.03910840      -0.07125820      -0.05108580
H       11.40624000       3.70446000       3.12552000      -0.05298080       0.02224310       0.00717291
H       13.37574000       2.18306000       1.94512000       0.01764000       0.04792270       0.04824100
O       10.64390000      15.06278000       8.52924000       0.00180516       0.00491091       0.02087510
H       10.06050000      13.74418000       7.51184000      -0.00094979      -0.02004230      -0.03869380
H       10.10130000      14.30038000      10.12514000       0.00808068       0.03037270       0.00529455
O        2.58346000      14.36260000      14.67396000      -0.03678760       0.01300690      -0.02695010
H        0.94836000      14.42620000      13.74136000       0.02211990       0.00859433       0.01307730
H        2.58606000      12.59780000      14.94706000       0.01326160      -0.02348950       0.01193160
O       24.53096000       4.07228000       3.20373000       0.00681790       0.05527350      -0.02139520
H        1.24088000       2.87042000       3.64545000       0.01705050      -0.00130968       0.00227416
H        0.78741400       5.84013000       2.77067000      -0.02131580      -0.05293000       0.02156030
O       16.80858000       0.48526000       7.88726000      -0.00408501      -0.10228600       0.09845360
H       17.70268000       1.71486000       7.31196000       0.06758660       0.10543800      -0.06653600
H       15.24158000       0.29976000       7.26436000      -0.06397440      -0.00171399      -0.03329540
O       15.94418000      11.64300000      23.89670000       0.01378890      -0.00744374      -0.01904250
H       14.92198000      11.04920000      22.46630000       0.00383922       0.00779691       0.00486330
H       17.71078000      11.89530000      23.25410000      -0.01618850      -0.01630190       0.01195220
O        3.49024000      16.99792000       3.69254000      -0.00899945       0.01425590       0.00666368
H        2.51284000      16.76592000       5.21194000      -0.00847877       0.02882300       0.03192750
H        3.33394000      15.30292000       3.30664000       0.01191930      -0.04517850      -0.03649210
O       21.13982000      21.40250000      15.77006000      -0.03986930      -0.01793190       0.03106810
H       20.10932000      22.72190000      14.87646000       0.00611982      -0.02363630       0.01640860
H       20.01372000      20.42230000      17.17896000       0.03332490       0.03914000      -0.05118130
O        7.88102000       4.74384000       2.86923000      -0.00522645       0.04984880       0.07918990
H        7.26132000       4.85164000       4.75401000       0.01877500      -0.01332810      -0.06065580
H        7.66882000       3.13974000       2.20328000      -0.02072520      -0.04111870      -0.01823050
O        4.72126000      18.82710000      11.53744000      -0.07847810       0.06757690      -0.00300048
H        5.99526000      19.61360000      10.64224000       0.04251470       0.01837470      -0.02808430
H        5.19516000      17.29710000      12.00114000       0.03218020      -0.09546820       0.02737450
O       10.41544000       5.35077000      13.89512000      -0.07197820       0.04084360      -0.05812880
H       11.37714000       6.84905000      13.75612000       0.01376820       0.02131160       0.00973926
H       11.24444000       4.13178000      14.69422000       0.05877200      -0.06543020       0.05196140
O        6.85177000       0.83449800      24.02795900       0.03745330      -0.03449740       0.08089100
H        6.85739000       1.25821000      22.39379000      -0.00658111       0.03822560      -0.08764850
H        8.41878000      24.26029800      24.07320100      -0.03102990       0.00968261       0.00375947
O       19.57376000       2.57928000       3.55956000       0.00462675       0.01707550       0.02050880
H       18.91096000       4.25666000       3.81746000      -0.01278420      -0.00223441      -0.00867217
H       21.29406000       3.00231000       4.08826000       0.00618543      -0.01040070      -0.01616010
O       23.35397000      11.62742000       7.82306000       0.03163780      -0.00128594      -0.00567410
H       21.65742000      11.23642000       8.12106000      -0.03311720      -0.00976780      -0.00103443
H       23.34085000      13.40862000       7.56746000       0.00668350       0.01095600       0.00238940
O        9.68706000      13.43096000      13.12780000      -0.00980300       0.01049940       0.04597480
H        9.17330000      12.09306000      11.94040000      -0.01227710      -0.01397910       0.01931810
H        8.56897000      13.50826000      14.71470000       0.02240190      -0.00293809      -0.04161790
O        8.58754000      19.68840000      19.62930000      -0.02233890      -0.05164470      -0.02554150
H        8.07164000      17.82020000      19.34890000       0.01398700       0.04637880       0.00421966
H        8.95654000      19.98940000      21.38140000       0.00516567       0.00296644       0.00930186
O        6.62166000       9.60296000       1.92952000      -0.02785710      -0.04335400       0.01728130
H        6.25956000       7.70216000       2.00022000       0.03051260       0.03346610      -0.01181820
H        4.98346000       9.95846000       2.69792000       0.00103582       0.01733870      -0.00770899
O       12.64820000       9.73256000      20.16560000       0.00451764       0.00181481      -0.03337380
H       13.04850000       9.46806000      18.29360000      -0.00489763       0.00438750       0.03801220
H       13.00760000       8.15486000      20.97380000       0.00311759      -0.01050050      -0.00405856
O        4.06130000      22.43778000      18.83170000      -0.06615850       0.01458090      -0.06858110
H        3.22118000      22.25128000      16.91500000       0.01302440       0.00798168       0.05227430
H        5.45618000      21.39768000      18.65050000       0.04255500      -0.02480630       0.01147340
O       24.08977900      20.41180000       1.86615000       0.03152810      -0.03013070       0.03512100
H        0.75535500      19.11080000       2.70947000      -0.02815120       0.03155900      -0.03709410
H        0.53437200      21.45290000       0.68520200       0.00628341      -0.00090118       0.00059051
O        1.46762000       3.21188000      11.48080000       0.04624660      -0.08002800      -0.00071569
H        3.05066000       3.06791000      10.24960000      -0.05041440       0.00678533       0.03747400
H        1.46301000       1.35789000      12.34090000       0.00270492       0.06700190      -0.03387500
O       15.66238000       4.84712000      20.94278000       0.02388200      -0.03967290       0.01728740
H       17.38648000       5.05542000      20.13928000      -0.01908250       0.00369746       0.01941420
H       15.88458000       3.43432000      22.30538000      -0.00505201       0.03614590      -0.03533990
O        5.73180000       3.68602000       8.05294000       0.10097800       0.12551500       0.13228900
H        7.46786000       3.24622000       8.75694000      -0.04183360       0.00335554      -0.02554580
H        5.13861000       2.59612000       7.03504000      -0.05827990      -0.13027700      -0.10924000
O       10.45568000      10.68226000       5.49527000      -0.00268607      -0.03399320      -0.04779670
H       11.75358000       9.57636000       4.53020000      -0.02970400       0.03023840       0.03435870
H        8.86928000      10.50716000       4.40372000       0.02975870      -0.00002049       0.01444370
O       13.42200000       9.56476000      14.88700000      -0.01841810       0.00560560       0.00823016
H       14.93890000       9.44476000      13.95580000       0.02554570      -0.00171196      -0.00955571
H       12.75630000      11.22786000      14.51240000      -0.00539895      -0.00173396      -0.00213907
O        8.60394000       9.71414000      10.23700000       0.01142410      -0.01236760      -0.02211470
H        9.52874000       9.72394000       8.57558000      -0.01990930      -0.00187852       0.01655610
H        6.91354000       9.00334000      10.02710000       0.00727616       0.01091040      -0.00227209
O        4.51008000       2.84816000      19.59390000       0.01269390      -0.02221060      -0.07517060
H        4.01868000       1.00849000      19.50930000       0.01828060       0.03077390      -0.00726972
H        5.04698000       3.18264000      17.54990000      -0.02272140      -0.00279699       0.07635940
O        3.30974000       8.46084000       9.75996000      -0.03996330       0.05366400       0.01475890
H        3.42974000       7.08854000       8.72386000       0.01075820      -0.05060690      -0.03138760
H        1.64694000       9.16404000       9.18666000       0.03047410       0.00089546       0.01514190
O       16.02710000      15.80040000       1.66006000       0.00553916       0.03430300       0.05566570
H       16.07400000      15.15970000       3.41056000      -0.00379879       0.01538210      -0.01680350
H       15.97820000      14.33500000       0.67056000      -0.01371820      -0.03913140      -0.02733960
O        3.37234000       0.44737700       5.14106000       0.08052460       0.00879057      -0.04929700
H        4.28794000      23.77185600       4.00926000      -0.02001650       0.02177750       0.02231670
H        1.87914000      24.30134500       5.63126000      -0.05842360      -0.03569560       0.02473020
O       18.52986000       9.07498000      12.48656000       0.03290670      -0.04270740      -0.08588930
H       19.37716000       7.50668000      13.07426000      -0.01011120       0.01556370       0.00296879
H       18.83896000       8.74099000      10.34516000      -0.02639660       0.03087080       0.08423510
O       17.52740000      18.57758000      19.28824000      -0.01221130      -0.03041060      -0.04781270
H       18.57890000      18.06428000      20.69972000      -0.00075032      -0.01587300      -0.00238373
H       16.85234000      17.09278000      18.06981000       0.02202540       0.05091550       0.05430320
O        5.38372000       4.92144000      15.03058000       0.11645600      -0.00245835       0.17173600
H        7.08502000       5.05284000      14.53674000       0.02395140       0.00857595      -0.01976710
H        4.23732000       4.86874000      13.95784000      -0.14246100      -0.00972600      -0.15618300
O       12.18210000      23.12945000      11.01930000       0.01260430       0.02929540       0.03028050
H       11.59820000       0.30908400      10.33470000       0.01856240      -0.03624600       0.03242210
H       12.77580000      23.13729000      12.93880000      -0.03580970       0.00084720      -0.06548830
O       14.83698000      20.42636000      23.34176000      -0.04179680       0.03562200       0.05930560
H       15.70058000      20.26806000      21.86186000       0.02915580      -0.02998410      -0.05287910
H       14.93578000      19.06871000      24.53056000       0.01479560      -0.01291230      -0.00799427
O       14.64000000      16.49027000      15.69322000       0.05560080       0.01348680       0.00712353
H       13.25560000      16.41476000      14.69784000      -0.08418740      -0.02013020      -0.02159120
H       15.55550000      17.28923000      14.32284000       0.03277900       0.00117370       0.00628460
O       18.83570000      17.79670000      12.16990000      -0.02678350      -0.14002800      -0.04803560
H       19.78690000      18.90950000      13.02980000       0.05213970       0.04739360       0.04173260
H       19.75180000      15.79760000      12.23420000      -0.02564620       0.08518700       0.00504785
O       12.01970000      21.56700000      16.36059000      -0.03936050      -0.00414821       0.01546810
H       10.30010000      20.86090000      17.30391000       0.06924470       0.01284390      -0.01870330
H       13.45090000      20.44090000      16.52078000      -0.01816490      -0.00465179       0.00986302
O       23.61690000      22.56516000       6.30426000      -0.03681570       0.01120700      -0.06019320
H       21.99120000      23.62626000       6.10836000       0.04658850      -0.03546080       0.00747838
H       23.90250000      21.77136000       4.26106000      -0.01819290       0.01917440       0.04503470
O       14.97638000       8.17228000       4.04581000      -0.00524279       0.00459050       0.00351705
H       14.90840000       9.33701000       2.66755000       0.00884483       0.00357607      -0.01377740
H       14.33214000       6.55977000       3.41612000       0.00342634      -0.00364371       0.00106894
O       18.17220000      24.53568000      12.83060000      -0.11103200       0.03658250      -0.02748070
H       17.33000000       0.34534000      10.99640000       0.03920260      -0.02463260       0.04192670
H       16.35500000       0.34614000      13.71750000       0.07570020      -0.01040730      -0.01234200
O       21.74093000      13.18310000      13.31576000      -0.02095500      -0.01589450       0.00246800
H       21.24785000      13.50830000      15.08106000       0.00865560      -0.01425010      -0.01817980
H       21.03877000      11.43580000      12.84416000       0.00659421       0.03845960       0.01676650
O       20.04006000      17.37176000      23.92490500      -0.03973050      -0.05371000      -0.03469810
H       20.98816000      18.71556000      24.39832400       0.03585890       0.04723630       0.03145790
H       18.77586000      16.75416000       0.59813700       0.00401736       0.02084650      -0.00005347
O       22.53920000      11.34990000      18.70988000      -0.08382800       0.01805250      -0.00212609
H       24.09720000      10.64440000      18.58768000       0.05732740      -0.03112690      -0.00937738
H       21.26760000       9.99829000      18.44858000       0.02525900       0.01092060       0.00650624
O        6.71824000      20.77456000       3.40864000      -0.04390160      -0.02504090      -0.04909300
H        5.68084000      19.17246000       3.54622000       0.01794970       0.02537230      -0.00165199
H        7.34784000      21.10316000       4.98095000       0.02482340       0.00317599       0.06118110
O        8.84592000      19.96328000       8.37866000       0.05755920       0.02321950      -0.00998137
H        9.55970000      18.30718000       7.77006000      -0.00928737       0.02558380       0.01996100
H       10.43090000      21.16468000       8.79506000      -0.05322260      -0.04643050      -0.00031686
O        1.36584000       9.39236000       3.17861000       0.02029130      -0.01600950      -0.02862330
H        0.05547200       9.88186000       4.23635000      -0.02718210       0.01422990       0.02635390
H        0.78901900       9.57266000       1.41681000       0.00803167       0.00432490       0.00377198
O       15.80069000      15.53229000       7.41393000       0.17249900       0.04551340      -0.06945020
H       14.40884000      15.09190000       8.08378000      -0.15497100      -0.03588060       0.07423850
H       16.66862000      16.85283000       8.37184000      -0.01258010      -0.01085650      -0.00220420
O       20.37808000       5.81027000      18.81380000      -0.03925440      -0.02259110      -0.06239480
H       21.70267000       4.93105000      19.69920000       0.00450204      -0.00513387      -0.00495505
H       19.90831000       4.90380000      16.98110000       0.04004200       0.03160170       0.07598820
O        1.95836000       9.12234000      22.88559000      -0.00759663      -0.04355990      -0.06578060
H        1.53786000       7.19574000      22.22645000       0.00830100       0.05534910       0.03064480
H        2.11126000       9.99564000      21.20695000      -0.00274122      -0.01485560       0.03973770
O        0.29896000       4.37266000      22.07866000      -0.06470450      -0.02190310       0.10429700
H       24.49660000       3.22976000      23.88476000       0.01359950       0.05732520      -0.07290210
H        1.42536000       3.31187000      21.30796000       0.04611040      -0.02872000      -0.03485370
O       15.86700000       0.77526000      24.43456000      -0.00162326      -0.00276370      -0.00675994
H       17.28330000       0.96906000       1.04712000      -0.00501020      -0.00969425      -0.01156500
H       15.79680000      23.65390000      23.57376000       0.00424613       0.01784240       0.02761690
O        7.18314000      10.80490000      20.80910000      -0.09425960       0.03340930      -0.01755260
H        8.79134000      10.48560000      20.49010000       0.10499500      -0.02009690      -0.01968910
H        6.83204000      10.23720000      22.42520000      -0.01092790      -0.01257340       0.04397780
