192
Lattice="23.95001 0.0 0.0 0.0 23.95001 0.0 0.0 0.0 23.95001" Properties=species:S:1:pos:R:3:force:R:3 TotEnergy=-1103.33088 cutoff=-1.0 nneightol=1.2 pbc="T T T"
O       20.26890000       2.96071000      15.64702000      -0.05031640      -0.02598060       0.07506210
H       19.69110000       3.93133000      17.35982000       0.03147640      -0.03162010      -0.05717620
H       19.41010000       1.19199000      15.90312000       0.01455540       0.05209680      -0.01294890
O        0.54468000      22.77429000       9.51986000      -0.09182830       0.01098030      -0.05175120
H        1.69718000      21.73349000       8.78109000       0.07365610      -0.03993690      -0.01002740
H       23.22889000      22.28809000       8.00107000       0.01698040       0.03346850       0.06100580
O       10.41900000       0.48785600      14.98600000      -0.00180591       0.01691460      -0.00105157
H       10.76620000      22.66258000      14.85340000      -0.00058341      -0.00719296       0.00363025
H        8.68716000       0.76533300      15.49680000       0.00078170      -0.00344436      -0.00488653
O       18.72876000      14.19121000      23.81430400       0.00122769       0.06043770      -0.03065740
H       19.75012000      15.27767000      22.45998000      -0.03654840      -0.02648690       0.04658670
H       17.38743000      15.48179000       0.47355100       0.03502850      -0.03364980      -0.01420930
O        9.05232000       5.00659000      21.59680000       0.05148990       0.00142568      -0.02728430
H       10.20290000       6.12959000      22.54200000      -0.02844630      -0.01459190      -0.00953875
H       10.49740000       4.47829000      20.10990000      -0.03617160       0.00201491       0.02127760
O       21.19715000      13.95970000       8.80657000       0.00389952       0.06235540       0.09829730
H       21.50865000      13.46710000       7.23757000       0.01680480      -0.03785130      -0.10119100
H       22.68233000      15.08360000       9.23861000      -0.02112940      -0.02143510      -0.00284942
O       14.52969000      22.71560000      11.18030000       0.00777252       0.03572720       0.00285390
H       15.90869000      23.38350000      10.15590000      -0.00740636      -0.00106738       0.00517555
H       14.28499000      21.04740000      10.64680000      -0.00611560      -0.02809530      -0.01870150
O        0.90270600       1.15981000      14.35110000       0.01874540      -0.03071380      -0.04420170
H        0.81175300       0.25971000      12.59000000      -0.00897315       0.02450420       0.05619030
H       23.22602500       1.33791000      15.16960000      -0.00604169       0.00695640      -0.01041810
O        6.15379000      13.28662000      18.05790000       0.01520650      -0.06847710       0.01591600
H        7.50289000      12.66032000      19.20180000      -0.01188460      -0.01468370      -0.01035060
H        6.51449000      14.95752000      18.25530000       0.00359516       0.07612790      -0.00058108
O        7.49045000      19.62352000      23.59932000       0.01253460       0.00259975      -0.00212673
H        9.09975000      18.54052000      23.36532000      -0.03326330       0.02038860       0.01913810
H        6.15905000      19.26962000       0.90151000       0.02158090      -0.02495390      -0.00649558
O       11.63541000       1.66312000       4.96882000       0.04894140       0.05961540      -0.01781300
H        9.88931000       1.58571000       4.61962000      -0.03553270      -0.00856350      -0.00546084
H       12.12621000       3.41852000       4.13007000      -0.01068870      -0.05587600       0.02049080
O       13.01841000       5.34929000       1.66888000       0.07777890       0.03637920      -0.01506540
H       13.71261000       4.32099000       0.23818000      -0.01029850       0.00441897       0.01822170
H       14.68978000       6.46999000       1.96128000      -0.05380330      -0.04076590      -0.00519248
O       13.44080000      18.62062000       7.62991000       0.19951100      -0.06618510      -0.03255470
H       14.39570000      16.78222000       8.25311000      -0.04429790       0.06979280      -0.03789240
H       11.93560000      18.69042000       8.20581000      -0.15378300       0.00269385       0.06130720
O        1.79369000      16.26230000      10.35849000      -0.05851490      -0.00159133       0.00073234
H        2.94289000      17.18320000       9.48599000       0.03524660       0.03716420      -0.04482010
H        2.82289000      15.56830000      11.58409000       0.01573110      -0.03454660       0.04199080
O       23.76889500       2.07601000      22.33269000       0.00659477       0.04096370      -0.03239900
H        1.35316000       2.81084000      21.49311000      -0.02159550      -0.02665290       0.03202690
H       23.92907400       0.72886900      23.53726400       0.01680440      -0.00625537      -0.00216124
O       20.85272000      23.56620000       5.06069000      -0.07057490       0.02015160       0.05892720
H       22.28272000      23.17560000       4.29819000       0.08500720      -0.02599820      -0.06096350
H       19.57142000      22.37360000       4.57939000      -0.00497470       0.00555176      -0.00103887
O       16.91302000       8.98622000      22.58820000      -0.03402560      -0.00780296      -0.06248600
H       15.95052000       9.00451000      20.86570000       0.01528160      -0.00966463       0.04488380
H       17.61272000      10.62970000      22.37610000       0.01254730       0.02074430       0.01603640
O        3.90431000      12.03848000       6.46751000       0.03554950       0.00627384      -0.00810042
H        5.76591000      12.37458000       6.25491000      -0.04057510      -0.00527619       0.00759458
H        3.23091000      11.63708000       4.81591000       0.00458547       0.00125373       0.00803417
O       16.89088000      22.16420000      15.45639000      -0.18903700       0.24128100       0.04839620
H       15.41668000      22.49000000      14.21119000       0.05107740      -0.01814530       0.01679100
H       17.79188000      20.95290000      15.22059000       0.14568400      -0.21762200      -0.05884970
O        6.38948000       1.40221000       4.17463000       0.01035350      -0.02257930      -0.05437630
H        5.35138000       2.49501000       5.17702000      -0.01374930       0.00248003      -0.00475697
H        5.88218000       1.14431000       2.22924000       0.00682829       0.01822500       0.05824100
O        9.27529000      18.99540000      10.50631000       0.01819470       0.06071790       0.03116420
H        8.47939000      17.38030000      10.21771000       0.00911596      -0.02252370       0.02246310
H        9.96839000      19.65240000      12.25851000      -0.03491690      -0.04388310      -0.05059610
O       13.77371000       6.99511000      12.68178000       0.04722880      -0.04967000      -0.03944820
H       13.24431000       5.48672000      11.67148000      -0.02679000       0.02212330       0.00978962
H       15.72037000       6.24655000      12.34238000      -0.03146950       0.05590840       0.02108830
O        5.95317000       0.41991500      23.10424200      -0.04356860       0.00532133       0.00688701
H        6.45685000      22.71893000      23.82480800       0.03218730       0.01730280      -0.02674150
H        6.92929000       1.87480000      22.57828000       0.02016350      -0.02038650       0.01004380
O       20.52399000       5.79295000      20.28670000       0.07550190      -0.07326560       0.02088730
H       19.45279000       6.85844000      21.11520000      -0.04276250       0.04051790       0.03904220
H       21.68669000       4.87935000      21.75360000      -0.04179580       0.02329780      -0.05569270
O       20.83475000      11.42808000       3.90979000       0.05217230       0.03846040      -0.07127230
H       20.30883000      12.64028000       2.37849000       0.00106375      -0.03302800       0.04370660
H       22.71033000      11.27528000       3.27679000      -0.05713720      -0.00207497       0.02650750
O        7.76195000      14.00779000       9.97202000      -0.00586964       0.01898970       0.00564554
H        6.68992000      14.29599000      11.55780000       0.02929610      -0.03438710      -0.03154960
H        9.31497000      12.90709000      10.17140000      -0.02716240       0.01511550       0.01902400
O        6.97461000      18.30960000      18.70790000      -0.04376730      -0.07721020      -0.21240800
H        5.54421000      19.36300000      18.15090000       0.00075948      -0.01148200      -0.01007260
H        7.18061000      19.04170000      20.06400000       0.04045790       0.09574520       0.21968700
O        9.64089000       9.25379000       1.73158000       0.05319510      -0.06242830      -0.00536891
H       10.75879000       7.56809000       1.59328000      -0.01723080       0.05422690       0.01144440
H        8.09979000       8.38699000       1.98108000      -0.03609630       0.00463091       0.00181414
O       13.86850000       9.54019000      17.79900000      -0.01780090       0.05202660      -0.06307550
H       13.95070000      11.53309000      17.23690000      -0.00235383      -0.07658450       0.01445250
H       13.14870000       8.61679000      16.19730000       0.02836960       0.02559390       0.04856410
O       23.56972600      21.40852000       0.97559000       0.00818027      -0.03757710      -0.00858257
H       22.42519000      20.32722000      23.87180000       0.01522600       0.01844550       0.01243020
H        1.09167000      20.27362000       1.33889000      -0.02309180       0.01533330      -0.00448244
O        2.24089000      13.02970000       0.91472100       0.03280390      -0.06738980      -0.00178102
H        3.18810000      11.23090000       0.80519500      -0.02640130       0.05440980       0.01304840
H        1.89739000      13.25130000      23.09083800      -0.00583656       0.01363510      -0.00574958
O        5.35326000       2.87885000      15.87770000       0.03621870       0.02077540       0.06957340
H        3.64676000       2.61469000      15.39280000      -0.02521350      -0.00471852      -0.00245073
H        5.37016000       3.44124000      17.77150000      -0.00744363      -0.01601550      -0.06552650
O       12.50202000       3.69108000      18.35042000       0.02092890       0.02288320       0.03788530
H       12.11252000       2.28878000      17.29302000      -0.00382202      -0.01674380      -0.01138510
H       13.88712000       3.26488000      19.61282000      -0.02217250      -0.00512216      -0.02285520
O        3.32753000       3.06548000       7.72231000      -0.02789310      -0.02356620       0.07350260
H        4.28653000       3.72758000       9.31671000      -0.01701660      -0.01586420      -0.04063480
H        1.90067000       1.82668000       8.46171000       0.05150320       0.03739320      -0.02539430
O       14.02932000      12.14229000       2.35339000      -0.04561550       0.10716500       0.05919850
H       14.77372000      10.80329000       1.72125000       0.04162840      -0.09052890      -0.04725530
H       12.24382000      11.92709000       2.64478000       0.00813052      -0.01160730      -0.00765599
O       22.03990000      10.39959000      12.23550000       0.09213420      -0.10252400       0.03573740
H       23.85420000       9.64099000      11.51920000      -0.06736120       0.02952960       0.02108780
H       21.50880000      11.50019000      11.05050000      -0.01912800       0.06033870      -0.06087620
O       11.27501000       3.33711000       9.82901000       0.02220300      -0.03777840       0.06916340
H       11.76061000       2.60511000       8.26497000      -0.00136679      -0.00435615      -0.03150290
H       11.85441000       1.89891000      11.04430000      -0.02228670       0.03923840      -0.02957460
O        4.05142000       6.18785000      20.81170000       0.03155810      -0.04449910       0.03506330
H        2.99902000       7.17256000      19.76630000       0.00672670       0.01572090      -0.02780470
H        5.98042000       5.83673000      20.72570000      -0.03742730       0.02956690      -0.00592879
O        3.55791000       8.76641000      10.47759000      -0.05012530       0.06718750      -0.02015210
H        4.74051000       7.44841000      10.89759000       0.02028790       0.00669764      -0.01887520
H        3.66071000      10.23971000       9.05749000       0.01586530      -0.06057690       0.02900320
O       15.64480000      14.26810000       7.10039000      -0.00498681       0.00066520       0.01639610
H       17.40760000      14.16560000       7.22499000       0.03372620       0.00208888       0.01900670
H       15.47060000      13.51210000       5.49339000      -0.02327600      -0.01205190      -0.03103920
O        2.86021000      21.62198000      18.26359000      -0.00413903       0.05651120      -0.03871120
H        3.16281000      22.48093000      19.89089000      -0.00421502      -0.00423168      -0.02196680
H        2.60891000      23.09296100      16.77469000       0.00464662      -0.05570690       0.05934730
O       18.25079000       2.65503000       7.93499000       0.03157840      -0.05664210      -0.05710090
H       18.48499000       3.85660000       9.16539000       0.01720950       0.03781960       0.03799820
H       19.95999000       1.88480000       7.28249000      -0.05426580       0.02191820       0.02270500
O       13.93611000      14.65262000      14.85701000       0.02606160       0.01214900      -0.04208020
H       15.43606000      15.79502000      14.53163000      -0.02200580      -0.02866250       0.01116160
H       13.72511000      13.63362000      13.21791000      -0.00489693       0.01728650       0.03418150
O        6.50138000       5.01631000      11.27631000       0.07329760       0.00495122      -0.06839290
H        8.43208000       4.59901000      11.13281000      -0.04807100       0.00967504      -0.01545000
H        6.21468000       4.51811000      12.87071000      -0.02111490      -0.02552560       0.08723710
O       15.81710000      22.34294000       4.36786000      -0.03477840       0.04090470      -0.01177180
H       14.63790000      23.82054600       3.96294000       0.02975450      -0.02423010      -0.00025432
H       14.73930000      21.77593000       5.71264000       0.00439371      -0.02078090       0.00963665
O       11.81992000      17.47751000      22.19659000       0.04444790       0.04896440       0.05228920
H       11.26542000      15.88463000      21.71509000       0.00091310      -0.04257490      -0.00831767
H       13.23342000      17.47350000      23.71489000      -0.04334260      -0.01283740      -0.03249120
O        4.39543000      12.79041000      13.38481000      -0.00346943       0.01288470       0.01404550
H        5.27257000      12.64081000      15.01854000      -0.00873695      -0.00622660      -0.00960420
H        3.93434000      11.17181000      12.59511000       0.01117880       0.00107021       0.00564211
O       18.81790000      17.65400000      14.04100000      -0.13115700       0.01733310      -0.11939500
H       19.04850000      17.14600000      12.21190000      -0.00574982       0.01335830       0.04211960
H       20.23250000      17.24250000      14.72070000       0.13656000      -0.03555270       0.07160960
O       11.33150000      19.54560000      15.78441000       0.01416640       0.01811210      -0.02335820
H       12.12110000      17.95710000      15.14691000      -0.02772430       0.00594979       0.03295350
H       10.02240000      19.77400000      17.08809000       0.01138200      -0.04022470      -0.01222030
O        0.49939000       6.18528000       5.10379000      -0.01773240      -0.00653152      -0.01881220
H       23.08080000       5.20828000       4.16859000       0.03906890       0.01802130       0.03153580
H        1.63019000       5.24428000       6.30019000      -0.02442350      -0.00391944      -0.01959760
O       18.93886000       5.69914000       3.35227000      -0.02164180      -0.17198400      -0.02766410
H       18.53827000       4.45757000       4.80982000       0.00838675       0.03244230      -0.03525670
H       18.98195000       7.16591000       4.03624000       0.01044320       0.14262700       0.06361600
O       15.19500000      21.09102000      20.37980000      -0.04726580      -0.03715920      -0.03607440
H       13.72280000      19.84432000      21.08300000       0.04628790       0.03646780      -0.03358720
H       15.00740000      21.11662000      18.32230000       0.01096000       0.00220913       0.07232490
O       19.95028000      18.61900000      21.15589000      -0.03234910       0.03835860      -0.03612530
H       20.88087000      18.47300000      19.46719000      -0.02780110       0.00420525       0.03666580
H       18.18267000      19.77690000      20.91299000       0.05871320      -0.04412310      -0.00057303
O       15.21529000      17.92889000       2.00159000       0.01542340       0.03651070       0.03037120
H       15.76059000      19.82229000       2.21567000      -0.01752850      -0.04386390      -0.00223271
H       14.93709000      17.51829000       3.83151000      -0.00443886       0.00340073      -0.03273620
O       23.16830000      17.61400000      16.70072000      -0.02418190       0.05926580      -0.00112712
H        0.09189000      16.14300000      16.95852000       0.02544700      -0.05074060       0.01402600
H        0.18349000      18.85880000      17.65512000       0.00001828      -0.00104009      -0.01074170
O        3.68471000      17.96349000       2.73778000      -0.00810053       0.02816220      -0.02986250
H        3.70881000      16.21259000       2.81088000      -0.00657966      -0.04484720      -0.01345200
H        3.98671000      18.43819000       4.39544000       0.01160320       0.02267980       0.04184810
O        5.24264000      20.58802000       7.05699000       0.03957540       0.04551600       0.07888360
H        6.16429000      20.17852000       8.90959000      -0.02488920       0.01797070      -0.07739820
H        5.71579000      22.51692000       6.80489000      -0.01283550      -0.06089500      -0.00267247
O        4.35312000       8.31239000       1.65804000       0.02479490       0.00558363      -0.10443800
H        3.57535000       7.32999000       0.15975800       0.03057680       0.02163010       0.02464510
H        3.43402000       7.70229000       2.93339000      -0.05422540      -0.03369060       0.07924930
O       12.01021000      11.63431000      10.92030000       0.00326041      -0.08330070       0.04330220
H       12.63911000       9.38711000      11.24160000      -0.00709753       0.06377070       0.00022928
H       12.85671000      12.19521000       9.50174000       0.02796480       0.00770709      -0.03797140
O       18.71353000       6.36138000      11.93810000      -0.00550508       0.09170900      -0.06949880
H       19.83775000       8.10643000      11.79430000      -0.03108370      -0.04956830       0.00734971
H       19.50912000       5.50410000      13.16670000       0.03713090      -0.04970680       0.06268690
O        1.28249000      13.90941000      19.63052000      -0.05002080      -0.03014480       0.00794950
H        2.79579000      13.39391000      18.95908000       0.07825990       0.01132620      -0.01644520
H        0.68299000      12.20641000      19.14025000      -0.02802450       0.01094820       0.00861772
O       23.90710000       8.89225000      17.73799000       0.02960890       0.01746720      -0.06938780
H       22.32550000       8.47508000      18.48539000      -0.01292320      -0.01311250      -0.00739535
H       23.85170000       8.99572000      15.72889000      -0.01125540      -0.00241585       0.07971690
O       15.87220000       2.27969000      21.89459000       0.00963998      -0.01229830      -0.00740110
H       17.39050000       3.06079000      21.05319000      -0.02121080      -0.03013900       0.02298880
H       15.76970000       0.32879000      21.95149000       0.01269920       0.04488560      -0.01751130
O       10.25021000      11.48290000      21.17510000      -0.00387718      -0.03847490       0.04971760
H       11.35761000      10.41370000      20.22230000       0.00773174       0.00407552      -0.02053790
H       10.14031000      10.28540000      22.79380000      -0.01273510       0.04911720      -0.03516880
