192
TotEnergy=-1103.50369000 cutoff=-1.00000000 nneightol=1.20000000 pbc="T T T" Lattice="22.90636000       0.00000000       0.00000000      -0.00000100      22.90636000       0.00000000      -0.00000100      -0.00000100      22.90636000" Properties=species:S:1:pos:R:3:force:R:3:Z:I:1
O              16.37100000     11.20520000      4.80696000     -0.00741691      0.01046150     -0.00860959       8
H              17.99180000     10.67110000      5.37615000      0.00519017     -0.00094714      0.00683137       1
H              15.29420000      9.72997000      4.70681000     -0.00551480     -0.00926051     -0.00446949       1
O              18.23850000     14.61130000     14.53360000      0.00132643      0.00082302     -0.00383732       8
H              17.28150000     13.36410000     13.61420000      0.00644742     -0.00861625      0.00283265       1
H              17.49460000     14.54940000     16.19860000      0.00004514      0.00707328     -0.00140080       1
O               3.74468000      7.68172000      2.26939000      0.00219264     -0.00402126      0.00016513       8
H               4.67616000      6.17093000      2.82016000      0.00452270     -0.00368686      0.00242616       1
H               4.47915000      8.95173000      3.33531000      0.00000850      0.00061180     -0.00411791       1
O               0.99806400      2.93074000     17.32320000      0.00028053     -0.00276268     -0.00184859       8
H              -0.51405400      1.98203000     16.84130000     -0.00300179      0.00476850     -0.00235614       1
H               0.49350700      4.22889000     18.52440000      0.00228782     -0.00057030     -0.00086069       1
O              10.37500000      1.25156000      3.12799000      0.00678971      0.00300887      0.00263354       8
H              10.62160000     -0.44350600      2.37356000     -0.00921680      0.00413532      0.00830150       1
H              11.91790000      1.80281000      4.03930000      0.00007544     -0.00404478      0.00015506       1
O               4.38786000     14.30710000     20.74240000      0.00048619     -0.00961297      0.00599507       8
H               3.48440000     14.00590000     19.18650000     -0.00532139      0.00108273      0.00512461       1
H               5.91650000     13.28190000     20.57430000      0.00712340      0.00639663     -0.00701342       1
O               6.49379000      4.07919000      5.34845000      0.00661361     -0.00274185     -0.00750616       8
H               8.78855000      1.26831000      4.19681000     -0.00099779      0.01383550      0.00308758       1
H               5.15604000      3.06503000      6.03898000      0.00788920      0.00604740      0.00209640       1
O               2.35177000     20.49280000      7.53596000     -0.00119707     -0.00332019     -0.00545312       8
H               3.35029000     19.29820000      8.55619000     -0.00122693      0.00454839      0.00194949       1
H               3.64808000     21.25820000      6.51064000     -0.00132213      0.00317348     -0.00174358       1
O               1.22318000     14.26730000      6.41751000     -0.04169180      0.01993680     -0.00971951       8
H               2.34909000     14.38520000      7.96009000     -0.03569570      0.02790690     -0.01284040       1
H               2.68857000     13.79470000      4.77689000      0.00920493     -0.00282383     -0.02848370       1
O              12.97630000      5.15457000     15.08320000      0.01365100     -0.04390030      0.03673640       8
H              12.78480000      6.35450000     13.75220000      0.00175845      0.01520430     -0.01612730       1
H              11.76910000      3.84077000     14.80450000     -0.00170370     -0.00387481     -0.00057973       1
O              19.72280000     19.30280000     12.55760000     -0.00294414     -0.00272315      0.00166290       8
H              21.06900000     18.37180000     11.82190000      0.00295146     -0.00743469      0.00394940       1
H              18.54890000     18.09060000     13.29820000      0.00832644     -0.00851658      0.00461705       1
O               9.17501000     12.32780000     19.38760000     -0.00850110     -0.00094868      0.00054378       8
H              10.70900000     13.24040000     18.96000000     -0.00872863     -0.00093492      0.00103865       1
H               9.33927000     10.68330000     18.59370000      0.01432950     -0.00410988      0.00718900       1
O              16.23030000      2.95910000     18.76260000      0.00765899      0.00390008     -0.00184162       8
H              15.16490000      3.95679000     17.62080000      0.00358800      0.00320235     -0.00066558       1
H              16.83570000      4.07199000     20.09360000     -0.01627940      0.00158073      0.00311204       1
O              15.18750000      1.31421000      5.20000000     -0.00596384      0.00250301      0.02028870       8
H              15.18370000      1.49923000      7.05045000     -0.00086750      0.00005893     -0.01988300       1
H              16.88550000      1.67924000      4.64432000      0.00672128      0.00767426     -0.00367167       1
O               3.43517000     22.87640000      1.71128000     -0.00233178     -0.00071633      0.00215277       8
H               4.43272000     21.48630000      1.05495000     -0.00077313      0.00024881      0.00107420       1
H               1.83145000     22.11270000      2.16364000      0.00156739     -0.00058856      0.00468256       1
O               4.78401000     17.33890000     10.21950000     -0.00393192     -0.01375860     -0.00368562       8
H               6.56413000     16.85160000     10.14430000     -0.00037490      0.00555899     -0.00603269       1
H               4.43704000     17.63310000     12.00060000      0.00011419     -0.01029940     -0.00204385       1
O               8.69473000      9.28925000     14.52010000     -0.00545640     -0.00306071     -0.00105108       8
H               8.33375000     11.07580000     14.63200000     -0.00405449      0.00236556      0.00178758       1
H               7.62296000      8.32390000     15.59950000     -0.00739650      0.00040051      0.00519641       1
O               3.92976000     16.96720000     15.10290000     -0.00168888      0.00985584     -0.00433944       8
H               2.47607000     15.89860000     15.34290000     -0.00546881     -0.00249842      0.00524344       1
H               3.38272000     18.68930000     15.22980000     -0.00336403     -0.00526164      0.01196280       1
O               2.58060000      4.92076000     11.76140000      0.00579475     -0.00046442      0.00117823       8
H               2.46428000      6.71430000     12.02780000     -0.00012180     -0.00563000     -0.00784845       1
H               0.97384800      4.30276000     11.19740000     -0.00371129      0.00195263      0.00050782       1
O              10.35730000      5.61529000      7.44462000     -0.00499157     -0.00238806      0.00459445       8
H              11.55160000      4.42830000      8.12709000     -0.00468955     -0.01292850     -0.00181191       1
H               8.54898000      4.79333000      6.70247000     -0.00138507     -0.00025807     -0.00393705       1
O               5.99427000     19.16920000     22.09730000     -0.00348328     -0.00686210      0.00264640       8
H               5.22529000     17.58080000     21.57070000      0.00337287     -0.00352511     -0.00068300       1
H               7.47100000     18.77180000     23.13710000     -0.00226628      0.00189145     -0.00473008       1
O              19.62740000      9.81603000     21.46020000     -0.00467244      0.00205533      0.00418324       8
H              18.68310000      8.37059000     22.08850000     -0.00233555     -0.00100169      0.00227020       1
H              18.25100000     10.76770000     20.61740000      0.00413616     -0.00894790     -0.01164800       1
O               0.92040800      7.19960000     20.22610000     -0.00077529      0.00129315      0.00072064       8
H              -0.56134300      8.31322000     20.32550000     -0.00172290     -0.00050651      0.00455800       1
H               1.70382000      7.25170000     21.87300000      0.00251276      0.00177274     -0.00210563       1
O              21.81910000     16.77620000      1.21256000     -0.00224617     -0.00149494      0.00466160       8
H              22.75110000     15.87140000      2.45358000      0.00126260     -0.00697280     -0.00662117       1
H              20.08140000     16.10500000      1.12135000     -0.00204008     -0.01165980     -0.00843390       1
O              16.36340000      9.64547000     13.85030000      0.00257751      0.00848285     -0.00471168       8
H              17.61360000      8.45369000     13.30370000     -0.00127978      0.00505230      0.00131490       1
H              15.08460000      9.69160000     12.55310000     -0.00702172     -0.01039870      0.00481387       1
O              13.22620000      7.27299000      3.87124000     -0.00197996      0.00006442      0.00194335       8
H              12.10040000      6.84394000      5.32727000      0.00097980     -0.00178566     -0.00870996       1
H              12.12570000      8.00813000      2.59058000     -0.00282067      0.00237102      0.00196574       1
O              12.29860000      7.85213000     19.44910000     -0.00090516      0.01199490      0.01293970       8
H              12.42770000      6.47940000     18.25670000     -0.00087488      0.01826750      0.00303980       1
H              22.15890000     15.15130000     28.95380000      0.09278340     -0.02739740      0.03216250       1
O              19.65200000      0.89812700     15.81790000      0.00372142     -0.00105934      0.00479862       8
H              18.93270000     -0.68310000     15.31320000      0.00790296     -0.00462557     -0.00166847       1
H              18.68110000      1.40426000     17.30170000     -0.00956466      0.00595286     -0.00578895       1
O              22.10860000     20.81790000      3.58619000     -0.01127210      0.00224693      0.00239579       8
H              21.70640000     19.36320000      2.49699000      0.00200814      0.00241346     -0.00140979       1
H              22.54210000     20.12730000      5.21320000      0.00766571      0.00460495     -0.00318723       1
O              12.54310000     19.72310000      7.27898000     -0.00028366     -0.00315464      0.00366967       8
H              13.81090000     21.02680000      7.40081000     -0.00351214     -0.00334148      0.00596113       1
H              13.33570000     18.30630000      6.43512000      0.00241713     -0.00311516     -0.00069706       1
O              16.28110000     18.04130000     17.91000000      0.00204837     -0.00042976     -0.00658847       8
H              18.10960000     18.70460000     18.10570000      0.00325464     -0.01363060      0.00160437       1
H              15.17120000     19.37560000     18.48650000      0.00565068      0.00329854      0.00573145       1
O              13.76020000     21.74430000     19.93530000     -0.00096319      0.00190296      0.00806558       8
H              12.11130000     21.74770000     19.13060000     -0.00120058      0.00138656      0.00802803       1
H              14.67160000     23.29200000     19.47960000     -0.00186012      0.00504988      0.00137886       1
O               6.67009000      2.57142000     10.89810000      0.00495182     -0.00093626      0.00163714       8
H               8.04696000      3.65654000     10.43080000      0.00143216      0.00222257     -0.00219222       1
H               5.18399000      3.71155000     10.93140000      0.00205983     -0.01035450      0.00171780       1
O               9.13253000     20.55920000     18.36980000     -0.00091547     -0.00896226     -0.00287099       8
H               9.71606000     18.79670000     18.21380000      0.00146748      0.00267536     -0.00405712       1
H               7.84284000     20.55000000     19.65560000      0.00114560      0.00181315      0.00237074       1
O              11.46770000     16.22760000     17.40610000      0.00277274      0.00175642      0.00173886       8
H              10.87180000     15.25680000     15.98390000      0.00097159      0.00345477      0.00184507       1
H              13.28380000     16.49090000     17.33830000      0.00358749     -0.00253334     -0.00375546       1
O               7.61539000     21.89720000      7.19181000      0.00000548     -0.00282304     -0.00107321       8
H               9.32909000     21.33410000      7.42866000      0.00082252      0.00072974      0.00457588       1
H               7.24943000     23.12810000      8.52721000      0.00125350     -0.00133129     -0.00216334       1
O              23.51580000     12.90810000     16.00900000     -0.00369784      0.00496350     -0.00165261       8
H              22.87630000     11.22190000     16.19960000      0.00565372     -0.00166535     -0.00067796       1
H              21.99530000     13.82040000     15.56380000     -0.00629599      0.00162480      0.00370420       1
O               2.88648000     10.22100000     11.12290000      0.01193140      0.00508564      0.00226659       8
H               2.75851000     11.30390000      9.69557000      0.00378050     -0.00515712      0.00021063       1
H               4.31943000     10.73050000     12.11600000      0.00277211      0.00053251      0.00214504       1
O              17.65220000     22.68750000      9.99375000     -0.00503748     -0.00384669     -0.01080070       8
H              18.98610000     23.48110000      9.02979000     -0.00114327     -0.00397820     -0.00448643       1
H              18.50320000     21.20580000     10.72440000     -0.00805221      0.00449635      0.00617352       1
O               7.94335000     14.04370000     14.12580000     -0.00000530     -0.00154478     -0.00122146       8
H               6.39512000     14.92520000     14.48460000      0.00411232      0.00444750      0.00574767       1
H               8.68652000     14.83340000     12.65810000      0.00052027      0.00091730      0.00013879       1
O              20.97560000     18.62500000     18.72560000     -0.00173963      0.01279810      0.00459092       8
H              20.61880000     17.60160000     20.17590000      0.00749975      0.00173901     -0.00392330       1
H              23.80940000     21.29570000     19.66640000     -0.01122960     -0.02192710     -0.00651973       1
O              22.45070000      6.26192000      4.70568000     -0.00023464     -0.00221913      0.00154792       8
H              23.71410000      6.93324000      3.53407000      0.00437684     -0.00209338      0.00588155       1
H              21.25830000      7.59847000      5.05041000      0.00691103     -0.00041257      0.00424788       1
O              16.67220000      5.63554000      0.43598300      0.00546927      0.00148518     -0.00134407       8
H              17.95840000      4.76759000      1.37919000      0.00001708     -0.00648459      0.00177800       1
H              15.23620000      5.83702000      1.57959000      0.00431307      0.00375391     -0.00474146       1
O              20.11110000      2.55106000      2.94798000     -0.00524809     -0.00248385      0.00314328       8
H              21.13860000      3.89445000      3.76845000     -0.00416379      0.00191686     -0.01193420       1
H              21.23840000      1.15521000      2.65058000     -0.00802394     -0.00331188      0.00263600       1
O              21.22410000      8.90014000     12.28980000     -0.00245480      0.00661716     -0.00923257       8
H              23.00690000      9.21203000     12.43250000     -0.00279522      0.00455256      0.00051253       1
H              21.01240000      7.09439000     11.89950000      0.00015432      0.00456436      0.00343034       1
O              14.74980000     20.09270000      1.98288000     -0.00187210     -0.00272914     -0.00543226       8
H              14.65430000     20.58620000      0.20371600      0.00237863      0.00186463     -0.00045897       1
H              15.80160000     21.25590000      2.89482000     -0.00508694      0.00327178     -0.00318219       1
O               9.66550000     16.12650000     10.02970000      0.00378748     -0.00010675     -0.00990979       8
H              10.64850000     17.57030000      9.47809000      0.00522605      0.00264463      0.00069408       1
H              10.09920000     14.74400000      8.93964000      0.00261952     -0.00188730     -0.00398767       1
O               5.19853000      1.61235000     20.32700000     -0.00802358     -0.00835346     -0.00660041       8
H               4.10285000      1.64011000     21.83300000      0.01353560      0.00446268     -0.00558205       1
H               4.38264000      2.63946000     19.06650000      0.00106796      0.00050047      0.00554597       1
O               9.72389000      9.97395000      0.97465400     -0.00029361     -0.00059282      0.00098621       8
H               8.67053000      8.69731000      0.19796900      0.00433934     -0.00552105      0.00278678       1
H              10.58980000     10.60360000     -0.50827700     -0.00043071     -0.00610412     -0.00505256       1
O              15.58150000     11.42200000     18.77690000      0.00969068      0.00454284      0.00323507       8
H              16.14960000     10.58560000     17.24650000     -0.00528252      0.00393450     -0.00069971       1
H              14.27050000     10.08500000     19.32240000     -0.01112550     -0.01480080     -0.00623203       1
O               2.40002000     21.08820000     18.56810000      0.00377107     -0.01488410     -0.00977314       8
H               2.28085000     22.41530000     17.31460000     -0.00494313      0.01504340      0.00277637       1
H               4.00724000     21.41690000     19.45850000      0.00033786      0.01568490      0.00921286       1
O              20.87510000     10.31560000      7.00719000     -0.00775776      0.00382523      0.00519867       8
H              20.94760000     10.01650000      8.82782000     -0.00222208     -0.00276984      0.00465802       1
H              22.02450000     11.64220000      6.62428000      0.00427229     -0.00759855      0.00353647       1
O              12.00920000      8.05727000     11.67350000      0.00569187      0.01458010     -0.01799400       8
H              11.58430000      7.05160000     10.23150000     -0.00758885      0.00443530     -0.00952979       1
H              10.42730000      8.43776000     12.63630000      0.00716445      0.00274182     -0.00341272       1
O               9.70945000     19.34260000      2.50632000      0.00370514      0.00025553     -0.00052267       8
H               8.95830000     18.82270000      4.07217000      0.00212393      0.00449648      0.00013425       1
H              11.53930000     19.42080000      2.77452000      0.00121843     -0.01248620     -0.00387979       1
O               9.37750000     13.88680000      4.05618000     -0.00772634      0.00476700      0.00127250       8
H              10.80160000     15.00450000      4.35011000      0.00026011     -0.00164505     -0.00563542       1
H              10.00180000     12.72680000      2.75826000     -0.01174650     -0.00536200      0.00813387       1
O              20.19910000      4.32025000     11.88920000      0.00040025      0.00415565      0.00806343       8
H              20.11460000      2.93901000     10.74060000     -0.00009205     -0.00262916     -0.00103783       1
H              20.42810000      3.54438000     13.52460000     -0.01021210     -0.00450626      0.00131553       1
O               4.21587000     13.11570000      3.04368000     -0.01115530      0.01069090      0.01136440       8
H               5.92938000     13.86600000      3.05218000      0.00299706     -0.00561816      0.00716342       1
H               3.61220000     13.12840000      1.28233000      0.00278075      0.00362739      0.00011215       1
O              13.18620000      1.62941000     10.22440000     -0.00194373      0.00178148     -0.00086034       8
H              12.18490000      1.14315000     11.67590000     -0.00214041     -0.00039563      0.00021794       1
H              14.91890000      1.23036000     10.72630000     -0.00439873      0.00095752     -0.00039594       1
O               8.43001000      4.48234000     22.42030000     -0.01327710      0.05620340      0.12692700       8
H               8.92340000      3.64525000     21.08700000      0.03445110     -0.05311850     -0.09665430       1
H               9.52970000      3.88116000     23.80700000     -0.02141000      0.01678580     -0.02756630       1
O              14.10170000     15.69670000      4.35191000      0.00198928     -0.00042234      0.00148630       8
H              14.66980000     13.97530000      3.97078000      0.00739000      0.00697930      0.01159530       1
H              15.00970000     16.81420000      3.22384000     -0.00486562     -0.00415124     -0.00675709       1
O               4.04105000      7.67637000     16.07750000      0.00431737      0.00069864     -0.00211822       8
H               3.99447000      5.98705000     15.40420000     -0.00513538      0.00099286      0.00330047       1
H               3.04200000      7.62583000     17.60750000     -0.00118514     -0.00131992      0.00295648       1
O              10.07660000      0.48628400     14.41830000      0.00153323      0.00156181     -0.00612518       8
H               9.86242000     -0.66171100     15.84430000     -0.00516702      0.00423567     -0.00315870       1
H               8.42303000      0.82575500     13.73370000      0.00006131      0.00189847     -0.00099030       1
O              21.86340000      1.40303000      8.23179000      0.00287118      0.00262244     -0.00194935       8
H              22.68100000     -0.15889400      7.77193000      0.00993565      0.00328650      0.00328043       1
H              22.06340000      2.57256000      6.87085000      0.00377137      0.00148524     -0.00309335       1
O              17.36820000     14.67580000      0.00837300      0.00544833      0.01418970      0.00333550       8
H              17.20000000     15.01210000     -1.79207000     -0.00559565     -0.00563313      0.00679487       1
H              17.37190000     12.88140000      0.29077400     -0.00040493      0.00149910     -0.00403535       1
