192
Lattice="24.70271 0.0 0.0 0.0 24.70271 0.0 0.0 0.0 24.70271" Properties=species:S:1:pos:R:3:force:R:3 TotEnergy=-1103.29034 cutoff=-1.0 nneightol=1.2 pbc="T T T"
O       22.50580000      19.28388000      17.13832000      -0.02439150      -0.00374191      -0.00574355
H       20.76890000      18.89711000      16.56372000       0.00947401       0.02301860       0.00266076
H       22.99520000      17.62032000      17.55762000       0.01615040      -0.01929730       0.00391211
O        1.73438000      23.66949000      22.33827000      -0.01164420       0.08400050       0.13824400
H        3.38358000      24.21299000      22.96736000      -0.01354810       0.00016766      -0.00593621
H        2.07048000      22.76329000      21.03007000       0.02278780      -0.07717820      -0.12613700
O       13.53480000       1.79145000      16.10390000      -0.05987700      -0.07705930      -0.06844550
H       14.20670000       2.51284000      17.49670000       0.03349330       0.01842420       0.07082920
H       12.79980000      24.67534300      16.41420000       0.02383580       0.05913330      -0.00298717
O       19.55443000      14.60531000       0.06749500       0.08961300      -0.13008000      -0.02560570
H       21.15195000      13.70271000      23.46356000      -0.08046480       0.04996460       0.05078530
H       19.06154000      16.20642000      24.37846800      -0.00610756       0.06747530      -0.03054060
O        5.74383000       8.04239000      20.23330000       0.03666050       0.02578720       0.11592200
H        6.99144000       9.35059000      21.24390000      -0.03802730      -0.04330820      -0.06054530
H        5.55829000       8.26089000      18.54540000       0.00785284       0.01821620      -0.06511390
O       19.54085000      10.02320000       7.84552000       0.00871553       0.05442790       0.01004510
H       19.16476000      12.00540000       7.99889000      -0.01316020      -0.06436750      -0.02234770
H       18.61815000       9.10924000       6.53036000      -0.00273339       0.01086240      -0.00399254
O       21.56029000       3.99909000      14.46400000      -0.02882720       0.01132300      -0.00040773
H       22.97939000       3.00799000      14.03280000       0.04016600       0.00115228      -0.00059999
H       20.39979000       2.70839000      13.93310000      -0.02811660       0.00076585       0.00897335
O        0.29299700      17.75772000       8.06352000       0.00442804       0.04608460      -0.00727010
H        1.81262000      18.54902000       8.99483000      -0.02225530      -0.02198480      -0.01754880
H       24.10612800      19.30172000       7.19237000       0.01396690      -0.02761390       0.02329460
O        8.27319000      14.73862000      17.16190000      -0.08436330      -0.02934080       0.00904312
H        6.31559000      14.31902000      16.30640000       0.08155030       0.01317180       0.02681910
H        8.29979000      13.94472000      18.93680000       0.00485277       0.01020740      -0.04296740
O        7.49132000      22.30002000      22.69772000       0.00479087      -0.01418260       0.00512108
H        9.45706000      21.97982000      22.88242000      -0.05663880      -0.00177602       0.01736440
H        6.30321000      21.47222000      23.99772000       0.05814730       0.01505030      -0.02140460
O       11.31681000       3.86946000       8.55702000      -0.09790920      -0.07426110       0.03085520
H       11.99941000       4.06099000       7.05341000       0.06028760       0.02829840      -0.09282350
H       11.77241000       4.66773000       9.97406000       0.03347930       0.05443230       0.06372410
O       13.20451000       4.59319000       3.80598000       0.15845300      -0.11083000       0.01289790
H       11.77461000       5.30119000       3.53238000      -0.14155300       0.05946620      -0.04254620
H       13.67841000       3.01489000       2.68538000      -0.01239040       0.04402190       0.02249990
O       12.38740000      14.53802000       8.66311000      -0.04040990      -0.07985680       0.03786150
H       12.39280000      13.35022000       7.15271000       0.00840615       0.03061680       0.01659180
H       11.61290000      13.17052000      10.05341000       0.03974710       0.06246020      -0.04709010
O        4.23539000      14.12140000      13.50799000      -0.06393980       0.02751660       0.07248180
H        2.48729000      13.82150000      14.44689000       0.04846960       0.02109490      -0.01806620
H        4.11759000      12.72810000      12.49439000       0.01130630      -0.04660510      -0.04292770
O        0.65946600       2.23239000       2.89118000       0.03335220      -0.04404830      -0.07295680
H        1.38083000       2.48360000       1.05220000      -0.01297480      -0.00396405       0.07046710
H        0.69260300       0.30010500       2.93165000      -0.00551728       0.04873260       0.00748378
O       17.01132000       0.49769000       8.25739000      -0.06656820       0.02316290      -0.05825780
H       16.24542000       2.00019000       7.20889000       0.03815580      -0.04067900       0.03643480
H       15.50612000      24.04570000       7.88519000       0.03673700       0.01682180       0.02327540
O       15.83342000      11.03330000       0.28619000       0.06328090       0.03952700       0.03783710
H       15.28192000      11.01360000      23.29680000       0.00024865      -0.00402697      -0.02480530
H       17.59212000      12.15220000       0.36149000      -0.06165840      -0.02496050      -0.01297910
O        2.10241000      17.26568000       3.10081000      -0.02512880       0.05556310       0.08162840
H        1.56831000      16.88218000       4.99041000       0.01245940       0.03104910      -0.04299540
H        2.12921000      15.63068000       2.64011000       0.00735596      -0.08526880      -0.04324950
O       18.07638000      19.15660000      14.18549000      -0.07665470       0.00567743      -0.00250156
H       18.35128000      20.85040000      13.53779000       0.00128361      -0.00054399       0.00689715
H       16.05638000      19.12740000      14.30309000       0.07935790      -0.00636503       0.00311562
O        7.83238000       5.50731000       2.69010000       0.10641800       0.11581900      -0.27567000
H        7.27748000       4.79081000       3.92440000      -0.10804600      -0.12855800       0.20336500
H        7.44398000       4.66681000       0.84806600      -0.00625970       0.01718370       0.07118760
O        4.76059000      18.76690000      10.46621000      -0.03247460      -0.01213470       0.02388560
H        6.32079000      18.52200000       9.55031000       0.00926278      -0.00044812       0.00483366
H        4.42959000      17.45180000      11.78971000       0.01689470       0.01832850      -0.02640680
O       10.73281000       6.07746000      13.28258000       0.02597430       0.04493380       0.08520170
H       10.49291000       7.93121000      14.21188000       0.01282880      -0.07113600      -0.05157520
H       11.96751000       5.17746000      14.53198000      -0.03898300       0.01767240      -0.03710420
O        5.76217000       2.82894000      23.53813000      -0.05391160       0.08207030      -0.06678660
H        5.53772000       3.38202000      21.53819000       0.00973488      -0.02729150       0.07393890
H        7.01622000       1.67532000      23.57005000       0.05219900      -0.06120700      -0.00711818
O       20.28269000       2.94474000       2.74699000      -0.06420060       0.03972130       0.01508370
H       19.65959000       4.72868000       3.06439000      -0.00894681      -0.03345640      -0.00289948
H       21.90749000       3.42180000       2.39039000       0.06136860      -0.00908358      -0.00946892
O       24.66141200      11.32558000       7.88769000      -0.03180540       0.03365890       0.00024515
H       22.81525000      10.50028000       7.91329000       0.04545820       0.03604940      -0.00178919
H       24.64418500      13.29568000       8.12529000      -0.01133700      -0.07009200      -0.00497404
O       10.33370000      11.34039000      12.70370000       0.00525826       0.01587830       0.03497650
H        9.14169000      11.65739000      11.28460000      -0.00894042      -0.00273656       0.01688210
H        9.98207000      12.28729000      14.32850000      -0.00785157      -0.01031170      -0.04296150
O        6.68271000      19.87060000      17.80230000       0.02045160      -0.05421390       0.02688950
H        7.07191000      17.89780000      18.04460000      -0.00819334       0.06167180      -0.01537740
H        7.01641000      20.59360000      19.49000000       0.00110433      -0.00250241      -0.00577710
O        7.97469000      10.77189000       1.74798000      -0.01238960       0.04222910       0.00916948
H        7.60569000       8.99229000       1.73628000      -0.01308800      -0.00636333       0.01244110
H        6.54349000      11.87289000       2.42218000       0.02231210      -0.03947040      -0.02259980
O       14.64530000       9.12939000      20.26740000       0.00513066      -0.04684170      -0.00671454
H       15.01950000       9.35289000      18.46500000       0.00318283       0.00176038       0.01040360
H       15.11630000       7.26769000      20.64520000      -0.01290430       0.04446670      -0.01200250
O        2.17674000      22.22192000      17.26700000       0.00498606      -0.03168300       0.01758540
H        0.77015800      20.91202000      17.51530000       0.03243170       0.03238940      -0.01292270
H        3.91940000      21.44352000      17.62530000      -0.04230900       0.00230867      -0.01742260
O       23.60810000      21.26630000       1.26089000       0.02676990      -0.04588270      -0.00930125
H       24.61530000      19.55430000       1.34457000      -0.02272460       0.05269570       0.00048448
H       24.43763900      22.35310000      24.66926100      -0.00506642      -0.01641320       0.00696765
O        0.84804300       1.78893000      13.10390000      -0.07412560       0.19169800      -0.03844330
H        1.06988000       1.30110000      11.50730000       0.00771667      -0.00861272      -0.09678570
H        1.40270000       0.51490100      13.78770000       0.08338620      -0.19572300       0.13095200
O       15.94212000       3.51398000      20.57542000      -0.02305830      -0.00797830       0.04813250
H       17.66762000       4.15698000      20.73792000      -0.00278600      -0.00759525      -0.00378453
H       15.36032000       2.75928000      22.28382000       0.02852680       0.02174520      -0.04630780
O        6.00606000       4.87798000       8.01081000       0.07302490      -0.08686580       0.01550150
H        8.02890000       4.48408000       8.47161000      -0.06672790       0.02691520      -0.01601070
H        5.58640000       2.96998000       8.01421000      -0.00526186       0.05006090      -0.00277726
O       12.51362000      12.19449000       4.23592000      -0.04405130       0.03321900       0.09225490
H       13.41472000      11.75089000       2.90814000       0.06850010      -0.02771340      -0.08952520
H       10.94792000      11.39559000       4.01937000      -0.02510120      -0.00929121      -0.01061260
O       15.87290000      10.92169000      15.05610000      -0.03712790       0.00956298       0.00139479
H       17.36890000      10.35309000      14.14380000      -0.00302850      -0.00531492      -0.00823245
H       14.31420000      11.05989000      13.99980000       0.03919580      -0.00812587       0.00832076
O        7.07831000      11.46341000       8.80770000      -0.00233490      -0.02031530       0.00500605
H        7.64401000      11.45831000       7.05958000      -0.00899101      -0.00863769       0.01662060
H        6.13991000       9.84001000       9.32981000       0.01036390       0.02994800      -0.01887610
O        3.49202000       2.57326000      18.89460000       0.03380210       0.14495000       0.03803260
H        3.08872000       1.29972000      17.92280000      -0.03468020      -0.10450300      -0.06055830
H        3.80032000       4.01757000      17.56490000      -0.00044172      -0.03841190       0.03410140
O        3.50241000       8.36641000      10.59609000       0.02080980      -0.02142470       0.00907911
H        3.67181000       6.82151000       9.60259000       0.00821210       0.00362053       0.00445285
H        2.26321000       9.28331000       9.71669000      -0.02924510       0.02246970      -0.01298130
O       15.49760000      17.65130000       2.98759000       0.00457781      -0.07239670       0.01840600
H       15.29600000      17.29920000       4.82999000       0.00590213       0.01091210      -0.02688750
H       15.97730000      15.82810000       2.38699000      -0.01759980       0.05716020       0.01647370
O        3.54071000      23.86329900       8.53149000       0.14215500       0.04050460       0.05133440
H        4.13261000      22.44905000       9.48499000      -0.00079910      -0.00816683       0.00261146
H        2.03491000      23.59835000       8.00689000      -0.14295900      -0.03063160      -0.05368660
O       20.25179000       9.01133000      12.58729000      -0.00205918      -0.00578528       0.00683067
H       20.75299000       7.23529000      12.87109000      -0.00667256       0.01826280      -0.00595085
H       19.77359000       9.32158000      10.80109000       0.00856007      -0.01434710       0.01235030
O       15.39608000      19.58442000      20.35678000       0.00175701      -0.00927195       0.01092190
H       16.79930000      19.13642000      21.54360000      -0.02121470       0.00265534      -0.01961840
H       14.46371000      18.16292000      19.64122000       0.01940140       0.00656701       0.00439267
O        5.26978000       5.47991000      15.32491000      -0.00372700       0.01027090      -0.00428738
H        6.90358000       5.57891000      14.64131000       0.05126170      -0.00673255       0.01588770
H        4.63928000       5.70481000      13.67411000      -0.04511750       0.00466465      -0.01557090
O       12.10370000      23.69368000       9.91484000       0.00418572      -0.01659800       0.04675860
H       11.64690000       0.66331400       9.32537000      -0.00189866       0.00212263       0.01080910
H       12.12950000      23.63287000      11.87890000      -0.00856822       0.00437572      -0.05969870
O       12.44232000      21.41217000      23.96579000      -0.05244470       0.07219710       0.06436700
H       13.20512000      20.32687000      22.91609000       0.05176340      -0.05746100      -0.05832210
H       12.33062000      20.74584000       0.94258000       0.00006498      -0.00826242      -0.00339053
O       13.75950000      16.53766000      16.31714000       0.03731960      -0.03753120       0.00262612
H       15.10360000      15.11313000      16.43035000      -0.04184040       0.03811190      -0.00925434
H       12.24820000      15.77048000      15.67164000       0.00071118      -0.00481270       0.00505804
O       21.47990000      15.56870000      11.36200000       0.04490230       0.04900680       0.00850153
H       21.32810000      16.52520000      13.06540000      -0.00030831      -0.02134020      -0.06004870
H       22.65220000      16.68290000      10.08790000      -0.03021570      -0.03101920       0.04751760
O       10.98460000      21.84060000      14.92692000       0.00833947       0.02708780      -0.00403949
H        9.45461000      21.46580000      15.76567000      -0.02939000       0.00423702       0.01276820
H       11.60060000      20.20350000      14.77705000       0.02397360      -0.02990080      -0.00511753
O       22.83330000      22.07849000       6.17209000      -0.09686150       0.00913367      -0.00547158
H       20.81450000      22.63159000       6.73179000       0.09392650      -0.02283050      -0.02438810
H       22.63770000      21.62029000       4.29049000       0.00882019       0.01793240       0.03365340
O       17.44045000       7.49190000       3.75090000      -0.02672630      -0.03393290       0.01491210
H       17.06154000       8.83090000       2.57862000      -0.00681532      -0.00144127      -0.00937807
H       15.83302000       6.34673000       3.80640000       0.03491980       0.03345680      -0.00331199
O       17.85530000       0.04111000      13.64670000      -0.03258450       0.02570430      -0.06569430
H       17.60200000       0.38471000      11.74360000       0.02079590      -0.01596680       0.03386130
H       16.17800000       0.80161000      13.99190000       0.01576270      -0.00901614       0.02599470
O       24.03930900      13.96330000      16.46849000      -0.02361010      -0.00700974      -0.05110430
H       23.24231000      13.20520000      17.89829000      -0.00325986      -0.01229630       0.01904590
H       22.86932000      13.28840000      15.11279000       0.02850510       0.01537720       0.02106100
O       18.46959000      19.64839000      24.39098000       0.00786199      -0.00731270       0.05599840
H       20.24669000      19.96979000       0.35107400      -0.03839800      -0.00039573      -0.01518660
H       17.28049000      19.20619000       1.28514000       0.03911070       0.01523710      -0.04184460
O       22.00030000      11.32660000      20.31692000      -0.07367000       0.09229860      -0.02195010
H       23.50980000      10.88610000      20.85402000       0.10773000      -0.03652480       0.04380650
H       21.14290000       9.85538000      20.05542000      -0.03602280      -0.05464420      -0.01343380
O        6.43921000      19.98009000       2.66476000      -0.01352130      -0.01819290       0.05300070
H        4.78541000      18.94009000       2.69721000       0.03916780       0.02094810       0.01103960
H        7.14061000      20.01129000       4.50933000      -0.02512410      -0.00394323      -0.05869100
O        9.36009000      19.24622000       8.37289000       0.01521450      -0.00055318       0.00077961
H       10.14580000      17.56762000       8.77039000       0.00563867       0.03383010      -0.01071850
H       10.47090000      20.79672000       8.62039000      -0.01647150      -0.03736840       0.00635710
O        2.51531000      12.13039000       2.27533000      -0.00879468       0.01365790       0.11703000
H        1.70769000      11.45229000       4.06188000       0.02728980       0.02130750      -0.07394760
H        2.05986000      11.08329000       0.95488200      -0.01742540      -0.03753010      -0.03672560
O       17.72515000      15.02432000       8.30000000       0.10156800      -0.01992530      -0.02592950
H       16.14906000      15.12709000       8.99760000      -0.04667330      -0.00500296       0.03670870
H       19.33192000      14.73266000       9.49897000      -0.05826970       0.03441240      -0.00671799
O       20.50673000       5.87677000      19.31800000      -0.00955394       0.00761921      -0.03744030
H       21.87264000       5.63931000      20.47580000       0.01339280      -0.01104770      -0.00452965
H       21.02510000       5.41674000      17.50700000      -0.00623413       0.00105796       0.04115020
O        1.47139000       9.31251000      22.66115000       0.02582920      -0.00101285      -0.02902500
H        1.06239000       7.51171000      22.60790000      -0.01128120       0.00210755       0.01222500
H        2.95499000       9.18671000      21.45621000      -0.01615840       0.00738631       0.02348930
O       24.56830000       4.61784000      22.20119000       0.09256300       0.01333250      -0.08671750
H       24.36650000       3.38047000      23.31459000      -0.03300900      -0.06456200       0.06728760
H        1.59389000       3.56924000      21.28479000      -0.06365250       0.04150220       0.00473589
O       15.87580000       0.96399000       1.00048000       0.00765494       0.05777470       0.02640230
H       17.69440000       1.02519000       1.54988000      -0.02530480      -0.01285390      -0.01629290
H       14.95650000      24.33330000       0.30548000       0.00711530      -0.04132700      -0.01062700
O        9.93321000      11.61420000      21.29680000      -0.00486556      -0.02215380       0.06048960
H       11.40311000      10.43430000      20.83270000      -0.02605520       0.02474030       0.02054470
H        9.48221000      11.57910000      23.33570000       0.02426520      -0.00363925      -0.07144820
