192
TotEnergy=-1103.47374000 cutoff=-1.00000000 nneightol=1.20000000 pbc="T T T" Lattice="24.51409000       0.00000000       0.00000000      -0.00000100      24.51409000       0.00000000      -0.00000100      -0.00000100      24.51409000" Properties=species:S:1:pos:R:3:force:R:3:Z:I:1
O              20.44980000      2.33985000    -32.72110000      0.00723238      0.02342390      0.02795560       8
H              20.47300000      2.90667000    -30.90580000      0.00556162     -0.01116830     -0.02236100       1
H              19.25480000      1.00883000    -32.75530000     -0.01161690     -0.01399910     -0.00050788       1
O              43.82710000     41.97260000     11.29490000      0.04563840     -0.06962640      0.01250430       8
H              45.25480000     41.30420000     10.24980000     -0.02369060     -0.01460650      0.02756170       1
H              43.75280000     43.35520000     10.32570000     -0.02695210      0.08652810     -0.03903020       1
O              14.13910000      0.16147200     21.39870000      0.04043710     -0.00691183     -0.09548020       8
H              13.07100000     -0.94160900     20.08460000      0.02801410      0.02704190      0.04456250       1
H              15.78680000      0.60981900     20.19290000     -0.06968090     -0.02431180      0.05482560       1
O              -4.33066000     -8.39688000     -0.23141300     -0.04898440      0.01319770      0.07252630       8
H              -3.17408000     -7.04614000      0.20893300      0.00689493      0.00522283     -0.01248330       1
H              -5.43608000     -8.29469000      1.50003000      0.03840920     -0.01576540     -0.05988430       1
O               5.27698000     32.95070000     21.73020000      0.06915870      0.01350060     -0.04848740       8
H               6.19338000     34.57710000     20.85880000     -0.03756180     -0.06935360      0.02591410       1
H               6.39619000     31.25860000     21.16490000     -0.03459480      0.05571030      0.02406990       1
O              -1.48608000     13.92770000      9.90652000      0.03817120      0.06434830     -0.03460730       8
H              -0.71269700     12.77800000      8.66036000     -0.00394042      0.01139030      0.00479178       1
H              -0.64339700     15.79990000      9.38623000     -0.01798490     -0.07694170      0.02561850       1
O              40.33170000     22.14490000     10.85880000     -0.02762380     -0.00685219      0.02801050       8
H              40.97880000     22.43630000      9.22480000      0.00414332     -0.00839198     -0.02468760       1
H              39.04880000     20.75140000     10.95240000      0.02430620      0.01801120     -0.00445866       1
O              -0.06032900    -24.61050000     13.15820000      0.05706450     -0.05346240     -0.04308120       8
H              -0.34027300    -26.34610000     13.80610000      0.01071880      0.00135081     -0.01828390       1
H              -1.22844000    -23.99750000     14.19390000     -0.07265140      0.05838900      0.05447890       1
O              32.35750000    -37.67140000     17.52010000     -0.01637360      0.02410510      0.00436105       8
H              33.47060000    -38.96980000     16.88360000      0.01258670      0.00958475      0.00649968       1
H              33.16970000    -36.06390000     18.03710000      0.00493979     -0.02682180     -0.00945185       1
O               6.76578000    -26.48430000    -22.13010000      0.02901640      0.05007610     -0.02674390       8
H               8.39545000    -26.09180000    -23.06780000     -0.02603380     -0.02102940      0.02136290       1
H               6.33493000    -24.68350000    -21.64420000      0.00107846     -0.01972120      0.00762575       1
O             -13.25850000      2.17158000      4.45697000      0.01616610     -0.01077280      0.00954478       8
H             -15.00490000      2.15896000      4.92661000     -0.02048380      0.01949640     -0.00301900       1
H             -13.13780000      0.60166300      3.55205000      0.01258330     -0.00584259     -0.00891994       1
O             -11.38120000     33.96660000     50.28320000     -0.06959270     -0.01525220      0.05119020       8
H             -11.02790000     34.99980000     48.91810000      0.01247300      0.02729790     -0.03172440       1
H             -13.29360000     34.32260000     50.69930000      0.05832330     -0.00774737     -0.01488570       1
O              13.80260000    -30.44100000    -19.58440000      0.00792502      0.01537560     -0.01607200       8
H              15.36530000    -31.48610000    -19.86900000     -0.03564160     -0.00145469      0.01981300       1
H              12.25680000    -31.01880000    -18.69200000      0.03014580     -0.01266910     -0.00299933       1
O              25.92690000     18.71610000     34.21920000     -0.00883355      0.00089125      0.02637870       8
H              27.41020000     19.23550000     33.21720000     -0.00033348     -0.00708229      0.01807380       1
H              26.01890000     19.05560000     36.08970000      0.00784220     -0.00158157     -0.04459890       1
O              -3.33096000      3.95239000     -3.11283000      0.00432246      0.02840470     -0.01410850       8
H              -2.00864000      5.25546000     -3.59262000     -0.01031960     -0.03532250      0.01592360       1
H              -2.80867000      2.89370000     -1.71539000      0.01160210      0.00312087     -0.00234874       1
O             -27.19930000     19.27950000     30.89720000     -0.03078510      0.05590840     -0.00746304       8
H             -25.66250000     19.18790000     31.89860000     -0.00831242      0.01804220     -0.00003029       1
H             -28.16710000     21.25650000     30.83440000      0.03872750     -0.08300010      0.00405477       1
O             -31.89360000     11.96990000     22.65200000      0.02674270      0.02375680     -0.02297110       8
H             -31.92570000     12.49690000     20.83670000     -0.00937341     -0.01223570      0.02673580       1
H             -30.65830000     13.23820000     23.31320000     -0.01653210     -0.01813760     -0.00359192       1
O             -16.09890000     61.13020000    -21.52490000      0.01303710      0.02518230     -0.07510900       8
H             -15.66900000     60.67180000    -19.95610000      0.02608900     -0.01586320      0.08941420       1
H             -17.83110000     60.81990000    -21.58090000     -0.04157750     -0.00988062     -0.01280500       1
O              66.00300000     21.66090000     41.09430000      0.02646240      0.00328334      0.00333229       8
H              65.39090000     22.15790000     39.45880000      0.00318728     -0.00545129     -0.00474771       1
H              67.78750000     21.14650000     40.85160000     -0.02600340      0.00490042      0.00101741       1
O              55.36140000    -21.66440000      4.63090000     -0.04830560     -0.00020451      0.04715360       8
H              54.32780000    -22.13390000      6.38754000      0.03254550      0.00736166     -0.06851540       1
H              54.20180000    -20.54270000      3.62546000      0.01193250     -0.01826550      0.01251500       1
O              34.46590000     16.92110000    -16.41680000      0.00539138      0.04412690      0.03350700       8
H              34.17770000     15.16700000    -16.09760000     -0.01161240     -0.02461670     -0.00243361       1
H              34.66140000     17.64360000    -14.67250000      0.00745376     -0.01293960     -0.03031810       1
O             -10.96390000      5.62668000     61.77750000      0.03474810     -0.02686490     -0.02551360       8
H             -11.64890000      4.20666000     60.64730000      0.01188970      0.02459410      0.02076740       1
H              -9.03666000      5.46237000     61.66460000     -0.03940290      0.00754236      0.00670259       1
O               7.05282000      3.94667000     -2.55539000      0.04528430     -0.02890610     -0.01392970       8
H               8.98363000      3.95051000     -2.52180000     -0.04131940      0.00999723      0.00596490       1
H               6.71459000      2.33513000     -3.54493000      0.00082762      0.01950380      0.00923658       1
O              43.25570000      7.18900000     25.08170000     -0.03090840      0.06859870     -0.04528930       8
H              42.77830000      8.72934000     23.78680000      0.00946790     -0.03466070      0.05862060       1
H              43.82890000      6.12778000     23.77210000      0.01825530     -0.03280620     -0.01128650       1
O               0.75395800     59.30350000     31.18400000     -0.00442487     -0.00641193      0.01539100       8
H              -0.78178500     58.34310000     30.88580000     -0.00180909      0.00549580     -0.00761947       1
H               1.75193000     59.01660000     29.70160000      0.00417856      0.00472667     -0.01339900       1
O               8.85079000     36.61000000      8.46388000     -0.01170400     -0.06829230      0.05020980       8
H               7.28313000     35.45590000      9.21901000      0.06279680      0.04227580     -0.02744690       1
H              10.55720000     35.88870000      9.32025000     -0.04853740      0.01413260     -0.02353990       1
O             -13.67700000     21.22460000     18.89530000     -0.03192190     -0.08763020      0.01031710       8
H             -15.40770000     21.68680000     18.61160000     -0.00385009      0.02203080     -0.00155326       1
H             -14.17720000     19.19830000     19.25230000      0.03791280      0.06899150     -0.01572960       1
O              27.64560000     35.46620000     50.70470000      0.05483210     -0.04158530      0.06017680       8
H              26.59840000     36.66050000     50.16680000     -0.06265210      0.07624810     -0.02799530       1
H              27.63840000     34.38630000     49.32380000      0.01100090     -0.03340540     -0.02862600       1
O              12.06810000     32.39220000     17.18100000      0.04011510     -0.05086910     -0.04285070       8
H              12.93280000     31.24900000     15.62000000     -0.03838200      0.04133830      0.04838980       1
H              12.25410000     31.29950000     18.66320000     -0.00470411      0.00901604     -0.00673275       1
O              -1.13834000    -23.59390000     25.72260000     -0.00443258      0.06130650     -0.02808210       8
H              -1.16167000    -23.72500000     27.46920000     -0.00353318      0.02061590      0.05786540       1
H              -0.92987800    -25.27700000     25.49800000      0.00516950     -0.07087410     -0.03505530       1
O               4.35964000     16.81240000     -3.39487000      0.05537120      0.01731400      0.02716180       8
H               5.77214000     16.89620000     -2.00092000     -0.04051150     -0.00934519     -0.03650500       1
H               2.82636000     16.71220000     -2.48604000     -0.01928750     -0.01808740      0.00716877       1
O               3.29615000      2.58116000     16.11180000      0.05948980      0.00097207      0.02486410       8
H               2.22677000      2.01919000     14.90210000     -0.03433690     -0.04713730     -0.06311230       1
H               2.17211000      3.66443000     16.87580000     -0.01998370      0.04579480      0.04274420       1
O             -36.83460000     54.43560000    -26.99920000     -0.02737760     -0.06208060     -0.07581160       8
H             -35.89240000     52.88700000    -26.74940000     -0.01034830     -0.02807200     -0.03126480       1
H             -36.04570000     55.00860000    -25.66300000      0.03870430      0.08420910      0.10367900       1
O               3.79205000     49.66730000    -16.25840000     -0.03847590     -0.07274290     -0.08479900       8
H               4.26202000     50.23560000    -14.78010000      0.03714520      0.05190220      0.11454700       1
H               3.87786000     47.82100000    -15.96460000      0.00351914      0.02157660     -0.01453970       1
O             -33.11540000     35.01270000      5.82200000     -0.03314710      0.01479170     -0.00858355       8
H             -33.97570000     34.79830000      4.09987000      0.02958750     -0.00505804      0.03223130       1
H             -31.39510000     34.36420000      6.10261000     -0.00103972     -0.01038930     -0.03012530       1
O              20.76350000     35.57540000     13.65840000      0.01216160     -0.02108480      0.01880430       8
H              19.01940000     36.09990000     13.91220000      0.01553560      0.01928150     -0.02323440       1
H              21.85130000     36.39720000     12.37790000     -0.02952940      0.00708675      0.00872180       1
O             -12.62470000    -22.77810000      9.93348000     -0.00974622     -0.00551025     -0.03844670       8
H             -12.96380000    -23.06820000      8.08552000      0.00140630      0.01813050      0.02403550       1
H             -11.30740000    -23.98400000     10.16190000      0.01334360     -0.01377900      0.01543760       1
O             -47.83040000      6.28139000     19.37040000      0.04667310     -0.12978700      0.06138900       8
H             -48.20640000      7.82689000     18.96550000     -0.02484660      0.13016000     -0.03727780       1
H             -46.34140000      6.45549000     20.58740000     -0.03228830      0.00732627     -0.02969600       1
O             -20.09630000    -15.52400000     34.80740000      0.01897850      0.04055760      0.00293717       8
H             -20.04650000    -17.23220000     35.20150000      0.00260510     -0.03456440      0.00933992       1
H             -21.52330000    -15.17270000     33.78020000     -0.01844010     -0.00241334     -0.01817760       1
O              18.08670000     15.58820000     29.29060000     -0.00525331     -0.01585730      0.01559080       8
H              19.36430000     16.20550000     30.40780000      0.01359820      0.02141690     -0.00295380       1
H              17.68880000     14.02010000     30.19030000     -0.01069610      0.00078885     -0.02006250       1
O             -18.39810000     -0.20341500     43.79770000      0.02033920      0.03261850     -0.04111940       8
H             -19.68350000     -0.79711600     44.79770000     -0.03844270     -0.03194080      0.03990220       1
H             -19.44590000      0.75242600     42.55380000      0.01249630     -0.00682756     -0.00045289       1
O              44.27470000      4.70516000     32.66090000      0.03979520      0.01786430      0.07095330       8
H              44.29830000      5.39274000     34.55820000     -0.01394520     -0.02385840     -0.05151800       1
H              42.63600000      4.39995000     32.00990000     -0.01988320     -0.00125271     -0.00616626       1
O              -8.34282000    -35.28120000    -11.80140000     -0.03344350     -0.02186520     -0.01253340       8
H              -7.48137000    -34.01860000    -12.77390000      0.01164970      0.00687374     -0.00215719       1
H              -9.49790000    -36.26870000    -12.97990000      0.02186950      0.01000240      0.02241760       1
O              55.88330000    -21.44260000    -12.45290000      0.06465300      0.00139295     -0.00678669       8
H              57.83240000    -21.50430000    -12.61730000     -0.05814330     -0.00192100     -0.00585032       1
H              55.70560000    -21.71050000    -10.68080000     -0.01236880      0.00182106      0.00899533       1
O              17.98580000     -2.08803000      5.79897000     -0.03829640      0.03049240     -0.04788380       8
H              18.41920000     -0.23578300      5.58379000     -0.01650000     -0.03755930     -0.00455031       1
H              16.58440000     -2.54358000      4.40166000      0.05673630      0.02016500      0.05600940       1
O             -38.75770000     -8.63545000     43.86670000     -0.11430900      0.04925150      0.00514766       8
H             -37.19820000     -9.21510000     43.84190000      0.10713300     -0.04205170     -0.00050238       1
H             -39.35470000     -8.46313000     45.58280000      0.00500913     -0.00996587      0.00115696       1
O               4.02539000    -11.54690000    -10.47120000      0.01052280     -0.01445010     -0.02389820       8
H               5.52435000    -11.80580000     -9.27129000     -0.02197910     -0.01390480     -0.03586320       1
H               4.08490000    -12.43420000    -12.25040000      0.01308310      0.01946410      0.06988290       1
O              22.66050000     19.99970000     14.94760000      0.02739730     -0.06773860      0.00136813       8
H              21.57860000     18.72970000     14.07480000      0.00765969      0.02453010      0.00665047       1
H              24.21290000     18.78760000     15.40770000     -0.03302890      0.03911920     -0.00268056       1
O              12.87020000     18.38470000    -11.72060000     -0.02374470     -0.00517412      0.05783690       8
H              13.89940000     16.82960000    -11.41990000     -0.01581330      0.02160650      0.00189208       1
H              12.02720000     18.87200000     -9.97921000      0.03442340     -0.01778150     -0.05754970       1
O              23.30780000     49.81020000     30.92330000     -0.00345508      0.04178080      0.05203000       8
H              22.09970000     51.33380000     31.42190000      0.04181790     -0.04758660     -0.00669662       1
H              24.79290000     49.76410000     32.24340000     -0.04813290      0.00723688     -0.04273540       1
O              -4.17215000      8.49403000      5.19120000      0.01315020     -0.03644010     -0.03103870       8
H              -3.83218000      7.13511000      6.54291000     -0.01936750      0.01400930     -0.03975100       1
H              -4.46978000      7.65833000      3.26390000      0.01070630      0.02933450      0.06641240       1
O              12.32760000    -26.80580000     25.90810000      0.00666952     -0.01604680      0.02849390       8
H              13.19780000    -28.01620000     27.12450000     -0.01865080      0.01341530     -0.02379940       1
H              13.44440000    -26.28500000     24.57210000      0.00370130     -0.00005855     -0.00369211       1
O              -0.99070200     20.11060000     49.87260000     -0.06590460     -0.02342160      0.02051890       8
H               0.52173500     20.71200000     49.24130000      0.05356860      0.01457990     -0.01100940       1
H              -1.03115000     19.77170000     51.66160000      0.00848178      0.00427201      0.00107292       1
O              32.66920000     41.03340000      0.26076100     -0.14964600     -0.22377000     -0.04827080       8
H              33.52990000     42.24740000      0.56057400      0.15921500      0.23183200      0.05622770       1
H              32.88160000     39.86940000      1.69084000     -0.00425882     -0.00412218     -0.01332660       1
O              27.33150000     17.82590000    -33.27400000      0.02345790     -0.02579680      0.04656550       8
H              27.81690000     16.24720000    -34.20400000     -0.00735211      0.01565490      0.01640790       1
H              27.92450000     17.50730000    -31.36520000     -0.01911770      0.00876286     -0.06395580       1
O             -21.36420000     46.31490000     -1.25690000      0.04907670      0.03289320      0.02774280       8
H             -21.00010000     44.62870000     -1.90044000      0.01338320      0.01367560      0.00284387       1
H             -19.75470000     47.07870000     -0.06029200     -0.05567730     -0.04795050     -0.03464970       1
O               5.76449000    -29.19330000     31.79990000     -0.05846470     -0.00807061      0.05538220       8
H               7.18628000    -30.13040000     32.20290000      0.03522700     -0.03678800      0.01680620       1
H               6.27418000    -28.37470000     30.41450000      0.01685420      0.04730900     -0.07916570       1
O               2.76798000     29.30440000      1.27274000      0.07005360      0.04172170     -0.03064660       8
H               4.21512000     29.58160000     -0.10115500     -0.05682690     -0.02003010      0.04438680       1
H               1.65169000     27.96840000      0.89905200     -0.00925684     -0.02168170     -0.01333530       1
O             -11.07650000    -14.11130000     10.12210000      0.00508795     -0.01229960     -0.02493730       8
H             -11.16660000    -15.89460000     10.55350000     -0.00255337      0.00365588      0.01580160       1
H             -10.15200000    -14.22290000      8.44349000     -0.00754602      0.01018270      0.00588224       1
O              -5.65824000      6.20079000     13.12920000      0.03235630      0.07147340      0.02469430       8
H              -4.73388000      7.78368000     14.05950000     -0.03368930     -0.03558030     -0.05120640       1
H              -4.91911000      4.99337000     14.21010000      0.00476309     -0.04082940      0.01499630       1
O              24.45760000    -10.84580000     -2.10898000     -0.00400894     -0.03570220     -0.04268430       8
H              24.06530000    -12.00340000     -3.70163000      0.01566270      0.04644940      0.04690040       1
H              22.98280000     -9.87252000     -1.67601000     -0.00552166     -0.00952004     -0.00284230       1
O              24.57600000     11.39410000     42.02680000      0.02704180      0.00139786     -0.05772040       8
H              23.04610000     11.18680000     40.96840000      0.01589100      0.00494407      0.01019930       1
H              26.01770000     11.74360000     40.61170000     -0.04331630     -0.00659131      0.04889100       1
O              16.63100000     27.82640000     53.47830000     -0.05381020      0.07746580     -0.04671140       8
H              14.71140000     27.89630000     53.61130000      0.03460680     -0.01609090      0.00405778       1
H              16.69220000     29.48900000     52.27040000      0.01388550     -0.06217140      0.04125540       1
O             -10.24360000     12.71840000     17.85920000      0.04437700     -0.08898360     -0.06865960       8
H              -9.40341000     12.32730000     16.01800000     -0.03199500      0.04099900      0.06353020       1
H             -10.43860000     10.74900000     18.08050000     -0.01467290      0.05291900      0.00578776       1
