192
Lattice="25.21993 0.0 0.0 0.0 25.21993 0.0 0.0 0.0 25.21993" Properties=species:S:1:pos:R:3:force:R:3 TotEnergy=-1103.41157 cutoff=-1.0 nneightol=1.2 pbc="T T T"
O       16.04650000       1.01881000      12.95470000      -0.01072230      -0.00010969       0.00270438
H       14.30450000       1.03519000      12.37600000       0.00842289      -0.00065121       0.00187305
H       15.88160000       0.54857100      14.71760000       0.01230360      -0.00004289      -0.00545815
O        0.94455000       1.43978000       8.68139000       0.00830908      -0.00136599       0.00740244
H        2.33815000       0.31343200       9.05423000      -0.00586378       0.00383386       0.00118799
H        1.79943000       2.83251000       7.89463000       0.00009748       0.00300078      -0.00212168
O       15.27190000      22.53970000      24.07740000      -0.00607422      -0.00506587      -0.00219743
H       14.38390000      21.75150000      22.68230000       0.00528679       0.00533176       0.00617071
H       14.11620000      22.27660000       0.23677000      -0.00128580      -0.00285750      -0.00162100
O       20.23360000      19.41090000       1.11962000      -0.00317321      -0.00399721      -0.00063415
H       19.42790000      17.85970000       1.65169000      -0.00255389       0.00605505       0.00462623
H       18.89170000      20.63430000       0.98293500       0.00143289      -0.00859350      -0.00081714
O       21.31940000       5.90644000       5.39356000      -0.00459226      -0.00267772       0.00562986
H       20.63840000       4.26626000       5.90538000       0.00064951       0.01372470       0.00374968
H       21.42410000       6.98181000       6.88476000       0.00474477      -0.01306350      -0.00406366
O       20.97610000       0.19490200      24.93475800      -0.01328630       0.00252549      -0.00469959
H       20.21260000       1.77970000      24.42260000       0.00813482       0.00122665       0.00425514
H       19.57070000      24.26550000      24.76660000       0.00692140       0.00119631      -0.00268708
O        1.70429000      18.33830000      12.10410000      -0.00538941       0.00144465       0.01001360
H        3.27658000      17.99070000      12.97560000      -0.00769988      -0.00268729      -0.01176600
H        0.45628500      17.09050000      12.63060000       0.00526926       0.00637344      -0.00384624
O       19.85650000      10.09450000       2.49693000       0.00303713      -0.00468663      -0.00401677
H       21.42060000      10.20740000       1.54240000      -0.00460698       0.00182760       0.00508101
H       20.00920000       8.52383000       3.44606000       0.00166930       0.00426587      -0.00293963
O       24.31880000       8.86234000       9.30615000      -0.00213656       0.00071455      -0.00059905
H       24.54660000       8.74965000      11.12580000      -0.00068072       0.01136480      -0.01651520
H       24.27630000      10.59430000       8.67072000       0.00329300      -0.00913117       0.01235570
O       13.49000000       0.66485100       4.63491000       0.00175286      -0.00838118      -0.00166883
H       14.88390000      25.19840800       5.61607000      -0.00220421       0.01098100      -0.00941038
H       13.93260000       0.63287500       2.85520000       0.00373219       0.00423206       0.00979041
O        6.65592000      16.49500000      13.15400000      -0.00535150       0.00017529       0.00423719
H        5.78521000      15.33620000      14.23340000       0.00346112       0.00044028       0.00350060
H        7.13649000      18.02090000      14.05780000       0.00213395      -0.01139770      -0.00560527
O        8.64012000       4.90162000      10.89240000       0.00901158      -0.00890954      -0.00698122
H       10.32780000       5.11778000      10.20430000      -0.00862527       0.00462849       0.00065322
H        7.53679000       4.78717000       9.44072000       0.00134381       0.00195061       0.00640392
O        9.92720000      19.99270000      12.27620000       0.00439510       0.00223170       0.00080806
H       10.33700000      19.63970000      10.53300000      -0.00053842       0.00378057       0.00080777
H       11.49100000      20.54590000      12.97430000       0.00488856       0.00496134      -0.00034997
O        4.42191000       6.87012000      17.60320000       0.00961217       0.00068274       0.00000974
H        5.84814000       7.51084000      18.69260000      -0.00548290       0.01117640       0.00666198
H        5.28223000       6.02608000      16.24400000      -0.00441433       0.00129676       0.00047141
O       12.09040000      20.78110000       7.15363000      -0.00984291       0.00157929      -0.01052370
H       12.09280000      19.68170000       5.70199000       0.00326781      -0.00293290       0.00305582
H       11.74660000      22.38970000       6.35627000       0.00329789       0.00051594       0.00438339
O       20.08340000       7.79531000      18.04330000      -0.00464550       0.00926322      -0.00145510
H       21.66950000       6.89054000      17.84920000       0.00267752      -0.00399021      -0.00337840
H       20.45340000       9.60076000      18.03960000      -0.00155319      -0.01603220       0.00412524
O       22.35370000      15.26720000      12.68090000      -0.00371404       0.00109644       0.00299165
H       20.81960000      16.19630000      12.26040000       0.00666560      -0.00737438       0.00033556
H       21.91060000      13.77330000      13.62050000      -0.00385885       0.00668294      -0.00537568
O       24.10900000       4.48497000      17.00530000      -0.16583200      -0.10655600      -0.02741160
H        0.25169700       5.31578000      17.21170000       0.14246400       0.08153190       0.00255026
H       23.26850000       3.45098000      15.07410000       0.03094910       0.03293640       0.03128630
O        1.09039000      18.14690000       3.61106000       0.00468211       0.00525529       0.02087880
H       24.55880000      18.76820000       3.46264000       0.03018820       0.00008543       0.00053803
H        3.26484000      19.43530000       5.96799000      -0.00445344      -0.00236584      -0.03344740
O        3.31257000      14.37690000      18.66490000      -0.00468405       0.04499810       0.05432490
H        4.88822000      15.62730000      18.81250000      -0.04039850      -0.03002290       0.00993985
H        1.86213000      15.62040000      18.08840000       0.01728900      -0.01969980       0.01655190
O       11.44990000      19.17570000      19.04810000      -0.01484650      -0.00180546      -0.00392048
H        9.92756000      18.18150000      19.30090000       0.00777808       0.00967043       0.00336306
H       10.87030000      20.88340000      18.76730000       0.00100893      -0.00043348       0.00541296
O        8.44469000      12.24740000       8.77139000       0.01245880      -0.00291402       0.01270840
H        9.73439000      10.95750000       8.61787000      -0.00288166       0.00207878      -0.00557470
H        8.82502000      12.87300000      10.45300000      -0.00671545       0.00165879      -0.00961658
O        8.16740000       0.86597700       2.96766000       0.00682877       0.01505010      -0.00658210
H        9.81886000       1.41386000       3.55670000      -0.00876133      -0.00646554      -0.00063409
H        7.73731000       2.18331000       1.70856000       0.00174784      -0.01299930       0.00366259
O        0.40827300       0.84749600      20.75680000      -0.00872706       0.00488299      -0.00103946
H       24.39710000       0.62471600      22.06530000      -0.00316445       0.00005471       0.00630767
H       24.93762800       2.16875000      19.66590000       0.00066577      -0.00192437      -0.00610680
O       14.51960000       5.30735000      16.72250000       0.01143930       0.00183754      -0.01114450
H       14.14990000       3.93082000      15.58800000      -0.00100423       0.00608500       0.00419001
H       16.20840000       5.83652000      16.22150000      -0.01104500      -0.00287340       0.01495550
O        5.39176000       2.39175000      20.02910000       0.01892530      -0.02652240       0.00993363
H        3.99717000       3.47891000      19.94450000      -0.01816900       0.02350980      -0.00897365
H        4.81585000       1.09944000      21.17560000      -0.00427473       0.00107700      -0.00391426
O       24.03980000       9.57642000      23.88590000      -0.01809920      -0.03300670       0.02486630
H       25.16650000       8.21392000      24.43230000      -0.00661197       0.01299710      -0.00640032
H       24.92894600      10.80020000      23.00180000       0.02510060       0.01161970      -0.01230970
O       18.12150000       7.13837000      11.61590000       0.00140157       0.00413029       0.01266640
H       17.63570000       6.20950000      13.09650000      -0.00080113      -0.00794539      -0.00671590
H       17.85680000       8.82969000      12.27430000      -0.00072578      -0.00155890      -0.01301470
O       18.65200000      25.00434200      17.91020000       0.00125069      -0.00453246      -0.00412713
H       18.58130000      23.15910000      17.85150000       0.00192579       0.01047800       0.00438034
H       20.42450000       0.18180700      17.83990000      -0.00502802       0.00125096       0.00034092
O        4.51945000       5.04016000       5.86323000       0.00666098       0.01264970       0.00056471
H        6.02348000       5.35048000       4.89078000      -0.00086558      -0.00960002      -0.00200327
H        3.94504000       6.72974000       6.22571000      -0.00665470      -0.00244459       0.00258289
O       12.77540000      15.16200000       0.63063600      -0.00350639      -0.00304134      -0.00585316
H       11.88110000      13.60050000       0.88370700       0.00111876      -0.00207758      -0.00182163
H       13.28080000      15.07680000      24.08950000       0.00039068      -0.00090403       0.00600062
O       11.60490000      10.99030000      17.21030000      -0.00705243      -0.00052376       0.00111721
H        9.86072000      11.39430000      17.67860000       0.01112960      -0.00753872       0.00485198
H       11.85950000       9.56568000      18.34420000      -0.00245953       0.00513307      -0.00556485
O       14.58980000      15.03090000      20.13860000      -0.00656040       0.00832948      -0.01703480
H       13.57180000      16.40530000      19.44190000       0.01138890      -0.00178930       0.01205560
H       14.41080000      13.86370000      18.73570000      -0.00155609      -0.00891671       0.00998263
O        3.81800000      22.29490000      16.05510000      -0.00226891       0.00288102      -0.00582838
H        2.45897000      21.83910000      14.93090000       0.00230606      -0.00252278      -0.00159074
H        4.47232000      23.81570000      15.28660000      -0.00084087      -0.00439479       0.00659573
O        3.57300000      13.37820000      24.65800000      -0.00459801      -0.00052815       0.00507440
H        2.33122000      14.38570000       0.36887000       0.00784617      -0.00440343      -0.00185758
H        4.18949000      12.06060000       0.64331100      -0.00801382       0.01489720      -0.01550010
O       17.05660000      14.66010000       4.42204000       0.00633172       0.00189059       0.00158870
H       17.77130000      13.08690000       3.78630000      -0.00691956       0.00657451       0.00049223
H       15.30990000      14.80040000       3.92107000       0.00900958      -0.00574800      -0.00619842
O        4.55171000      10.69850000       3.93754000       0.00511428       0.00374222       0.00454093
H        5.98809000       9.83664000       4.64555000       0.00141828       0.00795499      -0.00460081
H        4.45183000      12.26980000       4.87158000      -0.00448353      -0.00894819       0.00117256
O       10.75960000       0.77223100      13.76160000      -0.00947990       0.00057500       0.00061167
H        9.40639000       1.88473000      13.15240000       0.00914155      -0.00475598       0.00395318
H       10.02160000      24.44471900      14.38110000      -0.00264984       0.00776745      -0.00755506
O       13.12790000       7.58479000       7.42182000       0.01719850      -0.01068290      -0.00522610
H       13.69820000       6.43434000       6.11959000      -0.01117050       0.00251046       0.00163034
H       14.73180000       7.96931000       8.21002000      -0.00780505       0.00481425       0.00925504
O        0.08158700      14.40600000       6.34442000      -0.00013546      -0.00390187      -0.00183722
H       24.45992000      15.46330000       7.55418000       0.00312964      -0.00352666       0.00060932
H        0.50269500      15.72100000       4.93640000      -0.00030983       0.00134572       0.00989051
O       18.32520000      19.96880000      18.61740000      -0.00017043       0.00111178       0.00487419
H       19.13110000      18.53380000      17.88780000      -0.00312764      -0.00207982      -0.00418299
H       17.13510000      19.35260000      19.83590000       0.00123316      -0.00382892      -0.00284078
O       14.78610000      16.98130000      14.19820000      -0.00772507       0.00438056      -0.01073040
H       13.05650000      17.41900000      14.53900000       0.00028505      -0.00693101       0.00832781
H       15.00280000      17.77570000      12.57650000       0.01144720      -0.00459008      -0.00243434
O        7.97146000       4.51485000      24.10810000       0.00433669      -0.01616010      -0.01490330
H        7.13378000       4.26036000      22.45380000       0.00465041       0.00887594       0.02015240
H        9.72387000       4.12409000      23.68470000      -0.00682480       0.01006990       0.00693855
O        4.10159000       8.79160000      12.11770000      -0.00391598       0.00236911       0.00038418
H        4.84809000       9.75443000      13.47680000      -0.00418033      -0.00434648      -0.00855069
H        3.62154000       9.90737000      10.76210000       0.00597368       0.00063574       0.00714149
O       13.48340000       3.03779000      24.16710000       0.01211850      -0.00992934       0.00027079
H       15.15630000       3.73134000      23.94110000      -0.00132064       0.00965541       0.00242673
H       13.63390000       1.55164000      23.11970000      -0.00873041       0.00022205       0.00045095
O        2.51418000      21.62210000      21.70760000       0.00932510      -0.00594797      -0.01470580
H        2.00605000      23.14760000      20.81370000      -0.00940602       0.00599791       0.00858240
H        3.73598000      20.99000000      20.52740000       0.00167784       0.00383586      -0.00303324
O        5.66450000      17.43940000      21.75740000       0.01241750      -0.01491780      -0.00237444
H        4.47937000      18.52880000      22.57480000      -0.00877990       0.00792540       0.00524165
H        5.57447000      15.90940000      22.77790000       0.00530094       0.00151173       0.00492815
O       18.77710000       1.41192000       7.71923000       0.00135142      -0.00987700      -0.00292508
H       19.74780000      25.16121500       7.19380000       0.00101509       0.00724265       0.00592097
H       18.61800000       1.16963000       9.52156000      -0.00411014       0.00124447      -0.00454374
O        0.32022800       4.62395000       1.88712000      -0.09183910      -0.00656789      -0.05269890
H       24.15690000       5.09732000       2.99859000       0.01223740      -0.00079253       0.00222609
H        1.81403000       4.78750000       2.62747000       0.07878630       0.01137750       0.05049460
O       18.94490000       5.92451000      23.62310000       0.00128874       0.00261241      -0.00231437
H       19.24180000       5.97146000      21.82020000      -0.00088200       0.00463349       0.00191312
H       19.55700000       7.54922000      24.23060000      -0.00504029      -0.01259580      -0.00283258
O       10.03770000       0.02799700      19.92040000      -0.00293681       0.00172850      -0.00564016
H       10.14160000       0.93728100      18.34700000       0.00718662      -0.00045505       0.00094454
H        8.58111000       0.87304600      20.63320000       0.00551310      -0.00514110       0.00009974
O        6.49903000      24.06880000       9.81199000       0.00658754      -0.00131413      -0.01263670
H        8.16927000      24.79097400       9.90837000      -0.00595773       0.00141349       0.00351323
H        6.65301000      22.96440000       8.36219000      -0.00501568       0.00656473       0.01406760
O        9.87605000      20.79580000       1.33069000      -0.00521892      -0.02353530       0.00064013
H        9.00298000      22.36440000       1.34469000      -0.00786165       0.01825030      -0.00066458
H        8.78366000      19.59310000       0.46324800       0.01286570       0.01003430       0.00361565
O       22.55470000       2.58692000      13.01660000      -0.00488208       0.00446220      -0.02612900
H       21.09310000       3.45303000      12.27440000       0.01181400      -0.00438446       0.00993125
H       23.91540000       2.76684000      11.74520000      -0.00835613      -0.00801316       0.00734207
O       25.15812200      23.49420000       3.79744000       0.00457230       0.01140860      -0.00031020
H       24.25500000      23.73860000       2.24296000      -0.00370363      -0.00478881      -0.00111213
H        0.72646200      25.12115700       4.01403000      -0.00399522      -0.00254115       0.00427357
O       24.12180000      16.06630000      23.46310000      -0.01311370      -0.01667470      -0.01701990
H       22.32560000      16.14510000      23.80198000       0.00745805       0.01132060       0.00799147
H       24.17660000      14.41390000      22.68050000       0.00066921       0.00589955       0.00512646
O       12.52660000       8.79155000       1.76420000       0.00529654      -0.00696330      -0.00148763
H       13.85550000       9.43239000       2.81021000       0.00102446       0.00092584       0.00176350
H       13.28770000       7.36971000       0.89844100      -0.00707625       0.00864869       0.00010400
O       14.39430000      11.27320000      11.90660000      -0.00644630       0.00842736       0.02690590
H       14.73350000      12.92860000      12.63670000      -0.00064536      -0.00575378      -0.00904053
H       13.41500000      10.53150000      13.29820000       0.00576526       0.00153143      -0.01141780
O       18.79430000      18.15050000       9.32153000       0.00242133       0.00041193       0.00237863
H       19.64630000      17.15150000       8.05115000      -0.00929350       0.00353151       0.00053104
H       19.10030000      19.89020000       8.84092000       0.00171344      -0.00875073      -0.00170162
O        5.26015000      19.79940000       6.46086000      -0.00811986      -0.00537931      -0.01308950
H        6.26941000      20.52080000       5.05075000      -0.01896470      -0.00781580       0.00547487
H        5.94046000      18.12370000       6.77183000       0.00049016       0.00019332       0.00490313
O       22.12600000      22.34230000       8.41944000      -0.00092535      -0.00682694       0.00568961
H       23.53280000      21.93670000       7.32555000      -0.00328679       0.00549572      -0.00095175
H       22.40090000      21.50600000      10.01380000       0.00514527       0.00390865      -0.00644739
O       20.48920000      12.94020000      19.33030000      -0.00553696       0.02511430       0.00618390
H       21.02300000      14.56720000      18.67040000      -0.00367874      -0.01287360       0.00116203
H       18.91330000      13.33500000      20.21440000       0.00963348      -0.00581006      -0.00753136
O       24.38280000      18.13460000      18.00930000       0.01552930       0.00106474       0.00822371
H       23.72670000      17.96360000      19.71090000       0.00282075      -0.00029692       0.00251291
H        0.14352700      19.68530000      18.20500000      -0.00747759      -0.00676186      -0.00353611
O        7.84340000       9.40567000      20.62630000       0.00836623       0.00456056      -0.09167790
H        7.50252000       9.42347000      22.28380000      -0.01331650      -0.00262730       0.07604300
H        2.98206000      14.01080000      20.77180000       0.01559490       0.00410146      -0.06862220
