192
Lattice="25.42709 0.0 0.0 0.0 25.42709 0.0 0.0 0.0 25.42709" Properties=species:S:1:pos:R:3:force:R:3 TotEnergy=-1102.17034 cutoff=-1.0 nneightol=1.2 pbc="T T T"
O       16.30180000       3.20643000      11.47360000      -0.04312170      -0.00767692       0.01049210
H       14.56070000       3.21568000      10.76980000       0.02883670      -0.00029009       0.00499751
H       15.93340000       2.43255000      13.12000000       0.01091380       0.00639738      -0.01960620
O        2.55319000       2.28451000       6.25066000      -0.02037500      -0.01701730       0.01770490
H        2.93043000       2.36637000       8.02136000      -0.00374877      -0.00341922       0.00342655
H        3.87799000       3.16690000       5.51176000       0.02679490       0.01385410      -0.01969750
O       17.98200000      19.26420000      22.19400000       0.01144290      -0.03328380      -0.00176489
H       17.64720000      19.11130000      20.41460000       0.00507902       0.00127391      -0.00708845
H       16.98740000      20.66110000      22.54260000      -0.02248920       0.03319160       0.00576803
O       19.83020000      15.28400000       0.12179200       0.01777420      -0.03042530       0.00712810
H       18.45350000      14.39500000       0.82535600      -0.01008740      -0.01307960       0.01690320
H       19.15300000      16.86240000      25.23700000      -0.01001380       0.04346270      -0.01866830
O       23.19550000       3.74384000       3.60114000       0.00607007       0.01968200      -0.03236070
H       22.08980000       2.44297000       4.02556000      -0.02422300      -0.02853650       0.00552798
H       23.54920000       4.45586000       5.17542000       0.01431510       0.01237540       0.02646730
O       22.31310000      24.72840000      24.32840000       0.04778690      -0.02499320      -0.02373200
H       21.68110000       0.87491400      24.70279700      -0.02347510       0.04133760       0.01680320
H       23.84170000      25.22687200      23.35990000      -0.01905990      -0.01737640       0.00699289
O        4.03929000      13.78840000      14.67730000      -0.11154000       0.00183567      -0.02863940
H        3.67311000      15.66590000      14.64010000       0.00593342      -0.04047560       0.00307152
H        1.86401000      12.98870000      14.04530000       0.10203400       0.04255160       0.02919250
O       20.36680000       8.90212000       1.84733000      -0.03034760       0.06319490      -0.02621260
H       21.76560000       9.07257000       0.74952200       0.02037470       0.01072760      -0.01549760
H       20.52980000       7.31358000       2.40395000       0.01057840      -0.08322020       0.03401700
O       25.09450000       7.66232000      10.18890000      -0.04280280       0.07508300      -0.00028020
H       23.62720000       8.13652000      11.32970000       0.02789580      -0.02234910      -0.01717450
H       24.99560000       9.34770000       9.15407000       0.01534100      -0.05109350       0.01772590
O       15.66420000      23.68600000       1.95384000      -0.00334191      -0.01385540      -0.00274778
H       16.53090000      23.54700000       3.51893000       0.00901840       0.00137246       0.00618291
H       16.41510000      22.56400000       0.74983000       0.00463088       0.00162037       0.00611007
O       10.10220000      19.23990000      16.37520000      -0.02422420       0.05447800      -0.01594150
H       10.58870000      17.68420000      15.67160000       0.00667368      -0.01220440      -0.01655930
H        9.76547000      20.53890000      14.97970000       0.01722830      -0.04613100       0.03347430
O        9.85181000       7.40178000      11.65700000      -0.03797440       0.00705756       0.03145310
H       11.46990000       7.10140000      11.13420000       0.05078790      -0.00744604      -0.02334600
H        8.75638000       7.11595000      10.27210000      -0.00606626      -0.00112836      -0.00691123
O       12.40910000      20.75420000      10.95390000      -0.08016020      -0.02491180       0.00742492
H       12.44720000      20.47590000       9.18491000      -0.00308853      -0.00143818      -0.02229720
H       13.97350000      21.27780000      11.28180000       0.08238580       0.03751550       0.02302470
O        3.90043000       7.52432000      18.63060000       0.00654851       0.01212660      -0.01863430
H        4.62807000       9.46096000      18.67740000      -0.01168790       0.00502327       0.10876200
H        4.78447000       6.86555000      17.14300000      -0.00886212      -0.02727110       0.00325186
O       11.96220000      20.28100000       6.03245000      -0.01049650       0.00379590      -0.01336590
H       10.63820000      21.63010000       5.86043000       0.02112010      -0.00692473       0.00083925
H       12.44170000      19.77400000       4.34320000      -0.00249801       0.00648807       0.00981591
O       16.00200000       5.99903000      18.35060000       0.03895650      -0.01924180      -0.01275970
H       17.29560000       4.65130000      17.91700000      -0.03246750       0.03301950       0.01110900
H       16.68320000       7.48393000      17.45860000      -0.00714667      -0.00974936       0.00884257
O       24.12160000      14.87750000      11.54880000       0.01489360      -0.02378420       0.00950851
H       23.17740000      16.33810000      11.25560000      -0.01930270       0.02766290      -0.00658965
H       24.08580000      14.76290000      13.35830000      -0.00620546       0.00344850       0.00494099
O       23.44000000       5.57769000      17.58430000      -0.00748092      -0.00510662      -0.01014950
H        4.86486000       9.46845000      17.26690000       0.00676946       0.00879616      -0.08387170
H       23.60630000       4.94787000      15.85990000      -0.00302779       0.00699349       0.02001240
O       23.98760000      15.75480000       3.96860000       0.07838910       0.06089810       0.05127550
H       22.52060000      15.10560000       3.44357000      -0.08171640      -0.01895980      -0.04067180
H       23.95280000      17.63080000       4.32558000      -0.00095372      -0.04294290      -0.01155710
O        4.46015000      19.05360000      19.19670000      -0.04222410       0.04489230       0.06275300
H        3.83603000      20.68140000      20.33010000       0.02849360      -0.06345720      -0.05817040
H        5.80970000      19.44660000      18.11020000       0.01723160       0.01758680      -0.00540149
O       12.58990000      21.57110000      21.13970000       0.06896370      -0.04258420       0.04536050
H       12.34010000      22.96820000      22.16170000      -0.02036500       0.04178570       0.00734807
H       11.52370000      21.05230000      19.90530000      -0.04298930       0.00159591      -0.04190900
O        9.04842000      16.36820000       7.81854000      -0.00106858       0.02612940      -0.01958160
H        9.49462000      15.07420000       8.92330000       0.00511441      -0.02313440       0.02363620
H       10.51010000      17.48210000       7.82294000      -0.00378130      -0.00286764      -0.00742199
O        9.20325000      24.36490000       6.73729000      -0.00598549      -0.05794450       0.00629950
H        9.78417000       0.01924700       7.95183000       0.02059420       0.02700580       0.04634720
H        8.62451000      25.39731700       5.48430000      -0.02224940       0.03106800      -0.05770390
O        1.60179000       1.68889000      20.29210000       0.00604013      -0.01760050      -0.00888402
H        2.42076000       2.00928000      21.84770000      -0.00134887       0.00711460       0.01561170
H        0.15263500       2.73571000      20.17660000      -0.00883987       0.01908140      -0.00386199
O       10.60380000       5.93218000      17.72150000      -0.01559640       0.00042232       0.00837377
H        9.47622000       5.95972000      16.31830000      -0.00183285      -0.00051133      -0.00625713
H       12.11150000       6.67746000      17.13400000       0.01645220      -0.00088163      -0.00419788
O        6.77072000       1.77200000      18.37920000       0.00035657       0.04919330      -0.00174955
H        6.02432000       2.88847000      19.65760000       0.00532716      -0.01973850      -0.01538550
H        6.67592000       0.14064500      19.01820000      -0.00522909      -0.02853700       0.01407100
O       25.21917000       9.80687000      24.08350000       0.09179420       0.06077860      -0.03937310
H        1.16580000       8.57648000      24.60660000      -0.02847980       0.01278330      -0.00922280
H        1.23604000      11.51730000      23.00110000      -0.06716560      -0.07829200       0.05572990
O       19.63030000       7.87564000      12.97520000       0.02475580       0.03363340       0.08771490
H       18.54340000       6.53691000      13.54100000       0.00088240      -0.00384334      -0.00506126
H       20.22620000       8.85205000      15.58110000      -0.01742930      -0.03559760      -0.10161900
O       18.60220000       1.20492000      15.88630000       0.02190950       0.01577230       0.12996200
H       17.96500000      24.81290000      16.15100000      -0.00692801      -0.11760700      -0.05747070
H       20.41820000       1.21565000      16.66380000      -0.03466240       0.00480217      -0.03010410
O        5.76517000       5.96680000       3.64066000       0.03038090      -0.03881730      -0.03841210
H        7.28628000       6.72403000       3.02505000       0.01006190      -0.00753116      -0.00450283
H        5.22821000       7.16531000       4.72602000      -0.03489630       0.05560390       0.04914350
O        9.53512000      12.58940000      25.13633600      -0.03818700      -0.05967160       0.06160210
H        9.22969000      12.22610000       1.60792000       0.00435729       0.00583595      -0.05970580
H       10.33840000      14.12230000      25.23444900       0.03461710       0.04852720      -0.00434040
O       12.07050000      12.57680000      17.08130000       0.00379687       0.03839830      -0.00497608
H       10.37090000      12.68030000      17.73690000      -0.00646353       0.00082688       0.00524963
H       12.36210000      10.86820000      17.10900000       0.00901700      -0.04794790       0.00189406
O       12.96080000      16.36620000      24.60157100      -0.12837700       0.03706070       0.05266690
H       12.09030000      18.12100000      24.86560000       0.02686170      -0.05452810      -0.01490050
H       14.46230000      16.81680000      24.05160000       0.10232800       0.02849740      -0.04374840
O       23.86760000      22.69890000      13.52250000       0.13798900      -0.00438970       0.00442814
H        0.22075200      23.83850000      13.31950000      -0.07972910      -0.05144750       0.00348617
H       22.71370000      23.91360000      13.25810000      -0.05366810       0.05546320      -0.01399140
O        3.57676000      14.16370000       0.81999000       0.00274248       0.02870390      -0.06974420
H        2.86674000      14.17720000       2.35618000      -0.04756030       0.00927817       0.06898780
H        4.85606000      13.03730000       1.10840000       0.04458480      -0.03432360      -0.00272488
O       18.00480000      12.59570000       4.76887000       0.03828530       0.02207570      -0.05788670
H       18.98770000      11.10240000       4.77833000       0.00704668      -0.01190530      -0.00612796
H       16.98150000      12.46760000       6.12070000      -0.04512110      -0.00570206       0.06067670
O        5.47981000      11.34700000       5.62963000       0.03295770      -0.01394340       0.01053290
H        6.99828000      11.00080000       6.66768000      -0.02403510       0.00929690      -0.01574310
H        4.53508000      12.55170000       6.58771000      -0.00629670       0.00096007       0.00609088
O       10.34780000       1.37764000      12.26100000       0.01701840      -0.03646510       0.00278152
H        9.56254000       2.84723000      12.79310000      -0.01880130       0.03676300       0.00748399
H        9.91044000       0.19520700      13.60020000       0.00909871       0.00551402      -0.01079210
O       15.33640000       9.51014000       8.57008000      -0.06236340       0.04217200      -0.02205040
H       16.62850000       8.78860000       9.41630000       0.05894690      -0.03409960       0.03669000
H       14.82870000      10.89690000       9.69373000       0.00123707      -0.00669803      -0.00865837
O        0.26108400      12.32030000       7.52953000       0.01529650      -0.01377960      -0.04564380
H       24.55270400      13.28630000       8.45492000      -0.01413030       0.02017040       0.03898240
H       25.42518600      13.08920000       5.86300000       0.00653934      -0.01072160       0.00892459
O       17.38260000      22.06010000      16.41160000       0.01001200       0.05158850       0.02278740
H       17.05280000      20.61090000      15.40150000       0.00140960       0.00492707      -0.00840028
H       17.64020000       0.53681000      17.91180000       0.01492520       0.03917390      -0.04371660
O       16.19930000      18.10500000      13.25000000      -0.06206830       0.00089616       0.00844081
H       14.26660000      18.49570000      13.01570000       0.06259820      -0.01249290       0.00085304
H       16.84100000      17.63730000      11.64130000       0.00729273       0.00105114      -0.01464200
O        7.42458000       1.16001000       1.51872000       0.05717860      -0.06141380      -0.06834840
H        5.78836000       0.45283100       1.25371000      -0.01054170      -0.00464775      -0.00080914
H        8.75727000      24.98131100      25.16983600      -0.03690820       0.07318560       0.07486840
O        5.11474000       9.04785000      13.16770000       0.04536990      -0.03317620       0.04588030
H        5.15838000      10.19360000      14.58970000       0.01455750       0.00903400      -0.01137540
H        3.87922000       9.82816000      12.28810000      -0.05702460       0.02154390      -0.04754930
O       12.95660000       1.27899000      24.65040000      -0.13992700       0.09925880      -0.11329400
H       14.02800000       6.79465000       0.02611000       0.01452330       0.00025457      -0.02282290
H       14.10810000       0.58683500       0.07601000       0.12436200      -0.07592390       0.09927700
O       25.21029400      21.89180000      18.62180000      -0.00206635       0.05734180       0.02064120
H       25.06363600      23.30580000      17.42210000       0.00042309      -0.02372080       0.01763510
H       25.27987100      20.47430000      17.62980000       0.00152374      -0.03514350      -0.03240820
O        2.83655000      22.11160000      24.72910000      -0.07591530       0.09457400       0.06649080
H        0.85536900      22.84680000       0.70210000       0.08983130      -0.03607600      -0.07346770
H        2.58324000      20.40480000      24.65000000      -0.01356740      -0.05752850       0.00149492
O       18.87760000       0.73534800       6.17289000      -0.01757220       0.02316300      -0.02870150
H       19.83440000      24.82110000       6.76075000       0.02879270      -0.03779190       0.01388350
H       18.64000000       1.73103000       7.62482000      -0.00781555       0.01395220       0.01698000
O        2.24019000       5.17948000       0.20200300       0.08978200       0.03510300       0.01318270
H        1.18000000       4.65781000       1.49185000      -0.03319740      -0.01593900       0.02628400
H        3.98190000       5.66004000       1.43762000      -0.06377110      -0.02232540      -0.04541040
O       15.07020000       7.68989000      24.10890000      -0.02544520      -0.04377540      -0.01782720
H       15.28130000       6.41515000      22.63850000      -0.01006270       0.01656810       0.01756290
H       16.71130000       7.87823000      24.81640000       0.03355670       0.01034770       0.01556680
O       12.17410000       0.38051200      18.07790000      -0.04116780       0.07185810       0.03567310
H       12.40960000       1.13170000      16.41630000      -0.00425711       0.00018601       0.01616150
H       11.09460000       1.90998000      19.18240000       0.05104570      -0.06906270      -0.05631580
O        4.95718000      24.98326900      11.59550000      -0.02643130      -0.06055520      -0.06734280
H        6.27722000      24.67646100      12.69860000       0.02596460      -0.00074286       0.02600450
H        5.09070000      23.26390000      10.47880000      -0.00734927       0.06453670       0.05019850
O        7.25428000      19.69300000       3.24927000       0.03098990       0.03858620       0.02222670
H        6.34322000      18.62750000       2.26870000      -0.04391850      -0.03171090      -0.04902960
H        7.73352000      18.53790000       4.50467000       0.01365420      -0.01156960       0.02175180
O       24.27930000       2.67139000      12.74980000       0.00413142       0.01359900       0.00531177
H       22.94340000       3.81880000      12.21510000       0.01594190      -0.00359770       0.00142440
H        0.23877500       3.71214000      13.42730000      -0.01977320      -0.01107250      -0.01421960
O        1.19659000      20.74130000       5.20900000      -0.00710497      -0.03952000       0.01645910
H        0.64996100      22.15100000       4.32296000       0.00040730       0.03372970      -0.00677913
H        2.40782000      21.12560000       6.50918000      -0.00402761       0.00157162      -0.00647369
O       21.40210000      12.62760000      21.33330000      -0.09570560       0.01042780      -0.00658923
H       19.75320000      13.14100000      22.33590000       0.06645870      -0.00963115      -0.03209160
H       22.63720000      12.72180000      22.56230000       0.02706480      -0.00062441       0.03008210
O       11.32840000       7.62470000       3.04276000      -0.01439140      -0.02234540      -0.00027348
H       12.52110000       8.88373000       2.68072000       0.01174950       0.02039360      -0.00257128
H       11.21940000       6.47052000       1.62674000      -0.00436750      -0.00313258       0.00666142
O       13.55790000      13.76950000      11.93490000      -0.00644871      -0.01768380      -0.00793585
H       14.86810000      14.78440000      12.68420000       0.00057205       0.00130278       0.00531534
H       12.95830000      12.65290000      13.25220000       0.00055020       0.01144160      -0.00015148
O       19.86240000      17.05100000       8.64121000       0.05616150      -0.06796490      -0.03036200
H       21.70680000      15.07500000       7.20491000      -0.06158830       0.06719090       0.03736600
H       19.63570000      18.17070000       7.24872000       0.00011249       0.00397850      -0.01007210
O        5.25425000      20.20260000       8.98353000       0.05417910       0.01995450      -0.05948660
H        5.49560000      21.79740000       7.87535000       0.00115340      -0.04395140       0.02269870
H        6.79409000      19.14810000       8.24923000      -0.05102670       0.02440000       0.03288600
O       21.80870000      22.25810000       8.15829000      -0.00661254       0.01493650      -0.01683490
H       23.27920000      21.32030000       7.68076000       0.00266724      -0.00281390       0.00606024
H       20.98210000      21.46190000       9.53318000       0.00548296      -0.00967084       0.01090960
O       18.05420000      10.76240000      17.25930000       0.01498100      -0.02584040      -0.02140110
H       18.88270000      10.02250000      18.67070000       0.00380670       0.01585970       0.02287100
H       16.80810000      11.96240000      17.65090000      -0.01162880       0.01797260       0.01267910
O       22.69720000      16.26880000      16.74020000       0.00053594       0.00762307       0.03570890
H       21.59260000      14.93000000      17.33580000       0.00716763       0.00624519      -0.00049565
H       23.00450000      17.26440000      18.33310000      -0.00745079      -0.02028330      -0.03572070
O        7.45349000      12.84880000      19.38450000       0.04652940       0.03157940       0.07861170
H        8.38675000      13.25240000      21.36420000      -0.04726950      -0.02082320      -0.08603550
H        7.34251000      14.54010000      18.62200000      -0.00953109      -0.01426060       0.01290290
