192
TotEnergy=-1102.29977000 cutoff=-1.00000000 nneightol=1.20000000 pbc="T T T" Lattice="24.46018000       0.00000000       0.00000000      -0.00000100      24.46018000       0.00000000      -0.00000100      -0.00000100      24.46018000" Properties=species:S:1:pos:R:3:force:R:3:Z:I:1
O               4.37439000      8.17464000     22.99240000      0.18497800     -0.06649070      0.12915300       8
H               3.14815000      8.80843000     22.27790000     -0.18889300      0.08812060     -0.10963400       1
H               4.87959000      9.57154000     24.17390000      0.00519939     -0.02716310     -0.01904720       1
O              21.31480000      2.87232000     15.89780000      0.04498280      0.00947865     -0.01716330       8
H              21.02660000      1.45956000     14.77680000     -0.00950128     -0.00599473      0.01175450       1
H              19.91600000      3.20754000     16.90980000     -0.03491870      0.00199921      0.01069800       1
O              16.47100000     15.98840000     12.71790000      0.00241463     -0.00057624      0.09264580       8
H              15.99320000     15.89420000     11.07620000     -0.02413760     -0.00687758     -0.05848790       1
H              15.34720000     14.92980000     13.82900000      0.02310690      0.01461680     -0.03525710       1
O              16.76840000      0.37227000      5.28495000      0.02191300      0.02575410      0.04039960       8
H              16.13780000     24.01190000      3.92700000     -0.01254400     -0.07194410     -0.06219230       1
H              15.74020000      1.74044000      4.84174000     -0.01423550      0.04543300      0.01882370       1
O               9.98772000     16.11350000     21.76090000      0.05101090     -0.16763600      0.19947300       8
H              10.12620000     16.10390000     20.22700000      0.02734430     -0.01524260     -0.25052400       1
H               9.39548000     17.54480000     22.03500000     -0.08039910      0.18278300      0.04973530       1
O              17.26060000      7.28718000     13.05190000      0.01928240     -0.00754065     -0.04941900       8
H              17.95080000      9.03045000     12.90010000     -0.00910396     -0.02233320      0.00556259       1
H              18.01430000      6.26956000     11.56700000     -0.01493690      0.02897220      0.03957090       1
O              24.38540000      5.24792000     12.27240000      0.04909590      0.01376330     -0.06400220       8
H              -0.06424200      6.64437000     13.29720000      0.02210080      0.05070900      0.02272000       1
H              23.17330000      4.50718000     13.18060000     -0.07251110     -0.06316040      0.04303310       1
O               1.10172000     20.98350000     12.45650000     -0.00407254     -0.01314110     -0.00104273       8
H               1.61526000     19.79990000     11.21250000      0.00545469     -0.01091370     -0.00271546       1
H               0.56285900     22.29310000     11.36850000     -0.00293587      0.02511900     -0.00778324       1
O              14.40450000     13.23570000     23.49420000      0.00196886     -0.02553040     -0.03335340       8
H              15.10370000     11.53410000     23.56820000      0.00021386      0.01263520      0.00214042       1
H              14.10600000     13.26090000     21.59500000     -0.00006313      0.00184121      0.03712060       1
O              20.28300000     17.60490000      7.31096000      0.13856300      0.04852070      0.09544890       8
H              21.97790000     17.80850000      6.39453000     -0.02527000      0.00305748      0.03234010       1
H              19.46230000     17.15290000      5.99900000     -0.10341600     -0.05502580     -0.12337800       1
O              19.81810000     23.01250000     13.97120000      0.02627480      0.15688400      0.15845300       8
H              20.41690000     21.83800000     13.15840000      0.09390150     -0.17873600     -0.12208700       1
H              18.25100000     23.20740000     13.53350000     -0.12404000      0.01448460     -0.03869970       1
O               5.46444000      3.98474000      6.90163000     -0.00380434      0.05808020      0.02197610       8
H               4.82502000      2.59957000      7.77116000     -0.01160570     -0.03568330      0.01022050       1
H               6.33437000      3.62524000      5.44015000      0.02071500     -0.02337570     -0.02950240       1
O               0.53630000     19.24690000      5.21438000     -0.08610370      0.02069380     -0.00707941       8
H              -0.14129100     20.88840000      4.56753000      0.02173910     -0.02791750      0.00837329       1
H               2.23882000     19.32860000      5.36772000      0.06195700      0.00638714     -0.00062568       1
O              24.26760000     10.95890000     17.61650000     -0.08201270     -0.02699990     -0.04692900       8
H              22.79450000     10.34540000     18.77020000      0.04144780      0.02626100     -0.02606870       1
H              23.22600000     11.09570000     15.86120000      0.04246810      0.00169079      0.07836870       1
O               9.33517000     18.32530000     16.47890000      0.08585440     -0.08205610     -0.05780670       8
H               9.25807000     17.39380000     14.80030000     -0.00900367      0.03153280      0.04837660       1
H               8.04125000     19.33840000     16.82260000     -0.08007830      0.05085320      0.01168440       1
O               4.64962000     16.28810000     10.66080000      0.00198337      0.01472430      0.01201030       8
H               5.37801000     15.60500000      9.18768000      0.00570787     -0.00523233     -0.02058020       1
H               2.85218000     16.34030000     10.35230000      0.00041706     -0.00759832      0.00505679       1
O              18.35710000      1.35482000     22.46240000      0.00015014     -0.03034230      0.05249440       8
H              18.01420000      0.86468300     24.29360000      0.00298102      0.01830360     -0.04384830       1
H              19.06420000     24.17840000     21.97480000     -0.00707023      0.01309590     -0.00907933       1
O              11.95790000      2.45356000      1.81838000      0.01267060      0.02875950      0.05220860       8
H              10.70020000      1.31259000      2.34359000     -0.01258370     -0.01246420      0.00320588       1
H              12.23370000      2.15900000      0.14869300      0.00767852     -0.02100760     -0.05565600       1
O              19.60740000      5.63749000      8.07017000      0.11304900     -0.11145200      0.28638300       8
H              20.82180000      7.07857000      8.31063000      0.00488310     -0.03738530      0.03641530       1
H              19.29870000      6.40921000      6.85056000     -0.11567800      0.15012600     -0.32232100       1
O               8.27741000     10.87630000      0.56027500      0.05866700      0.05493520      0.01366130       8
H              11.52820000     10.70600000      1.80092000     -0.07428100      0.00012482     -0.04260390       1
H               8.29186000     12.74210000     24.42310000      0.00685863     -0.04930750      0.01798630       1
O              12.14670000      8.82301000     14.88720000      0.27508900      0.12012600     -0.20375400       8
H              11.11340000      7.93275000     15.48070000     -0.23949800     -0.18940600      0.15718500       1
H              12.86990000      7.36524000     13.35960000     -0.02786120      0.08017900      0.06949550       1
O               2.42387000     20.80680000     17.21240000      0.03023960     -0.03200070      0.02502940       8
H               2.23088000     20.02120000     15.56620000     -0.00487022      0.00972348      0.00589845       1
H               3.60288000     19.64310000     18.15240000     -0.02625380      0.02221690     -0.02044640       1
O              23.55380000     21.10600000     21.44050000      0.01717950      0.05199920     -0.05730140       8
H              23.54480000     23.07630000     21.08940000     -0.00241877     -0.06980150      0.01215320       1
H              -0.02245700     20.42420000     19.84210000     -0.02384240      0.02113440      0.03756130       1
O              23.52020000      5.61160000      0.40248300     -0.03209960     -0.01876700     -0.09708170       8
H               0.75755200      4.84646000      0.46768900     -0.01993540     -0.00062720     -0.00406564       1
H              22.80990000      5.22278000     22.81500000      0.03727830      0.01805410      0.11013300       1
O              14.01440000     20.45890000     16.50810000      0.25069600      0.06238090     -0.02364520       8
H              15.07860000     19.71800000     15.18480000     -0.02959820     -0.00165786      0.00886362       1
H              12.49990000     20.12360000     16.59640000     -0.22220000     -0.06766910      0.00136488       1
O               0.82939300     11.95930000      5.38892000     -0.04913560     -0.00818817      0.02908510       8
H              23.43790000     11.85970000      5.72585000      0.01416220      0.02691810     -0.03184910       1
H               0.91205900     10.46960000      6.41178000      0.03861670     -0.01252660      0.00346361       1
O              15.24570000     12.19050000     18.22100000     -0.03008070     -0.03255990     -0.04372420       8
H              15.64420000     14.01200000     18.11940000     -0.00759892     -0.02719140     -0.02011460       1
H              14.13530000     10.65450000     16.16910000      0.01978080      0.05060960      0.05945960       1
O              11.01200000      0.78200600     19.18430000      0.00221698     -0.01621190     -0.00883551       8
H               9.94984000      2.15664000     19.59110000     -0.00600018      0.02281310      0.00631516       1
H              12.56820000      0.92451900     20.08930000      0.00330049      0.00005324     -0.00292326       1
O               3.59199000      3.90285000      1.97159000      0.01071540      0.00568497     -0.04440580       8
H               3.99704000      5.33449000      0.86874800      0.00738239     -0.01452840     -0.02422300       1
H               3.56785000      4.97284000      3.34201000     -0.00872527      0.01152920      0.06022140       1
O              17.99580000     20.40970000     19.31910000     -0.01521600     -0.11353600      0.15303800       8
H              18.70360000     21.44140000     18.37240000      0.10889800      0.13677400     -0.12233700       1
H              16.48890000     20.22480000     18.58010000     -0.08694930     -0.01473060     -0.02530450       1
O               7.21030000     21.93650000     20.08600000      0.26147600     -0.15140200      0.04674740       8
H               5.94728000     22.72220000     19.82070000     -0.24346400      0.15699600     -0.05447720       1
H               8.68584000     22.93550000     19.49560000     -0.01727130     -0.00960761      0.01370980       1
O               5.61806000     17.45220000      0.75864300      0.09906130     -0.09657040      0.08702230       8
H               4.89059000     18.71610000      0.07573300     -0.09000170      0.12204200     -0.07675390       1
H               6.74790000     18.37160000      1.92954000     -0.01350860     -0.02753640     -0.00729619       1
O               2.18436000     22.32330000      0.82080500      0.04007700      0.00598391      0.04487320       8
H               3.41317000     23.22210000      1.96496000     -0.03017990     -0.01256060     -0.03049290       1
H               1.95825000     23.36010000     23.84440000     -0.00193965      0.01013080     -0.00739087       1
O              20.02670000     11.20030000     21.59260000      0.06084200     -0.10713900      0.02276410       8
H              19.13540000     12.63150000     21.69720000     -0.04276750      0.07517130      0.01158890       1
H              20.59630000     10.61420000     23.32040000     -0.01112780      0.03041600     -0.03207230       1
O              21.52360000      9.93582000      2.52317000     -0.10624300      0.02539850      0.02261070       8
H              22.54170000      8.68822000      1.97272000      0.05354820     -0.06068590     -0.02711240       1
H              19.77380000      9.05145000      2.50991000      0.04551000      0.03074670      0.00255405       1
O               7.09720000     12.71500000      5.58412000     -0.01078380      0.02885080      0.01738890       8
H               7.92760000     11.34360000      4.90244000      0.02594320     -0.02499840     -0.04198250       1
H               6.56655000     11.87170000      7.05340000     -0.01869780      0.00001099      0.02828940       1
O              16.99030000     21.10460000      9.51764000     -0.01588900      0.01265600      0.00172689       8
H              16.20120000     22.46220000      8.43576000      0.04187700     -0.02897660      0.01451830       1
H              18.75340000     20.54040000      9.22861000     -0.03235370      0.01662350     -0.01926610       1
O               4.01638000      9.05325000      8.95790000     -0.00530301      0.06653410      0.02808790       8
H               4.39973000      8.22838000      7.49456000      0.00648597     -0.04516360     -0.03189950       1
H               3.26285000      8.13358000     10.28180000      0.00312260     -0.02234580      0.00607015       1
O               7.45103000     12.74540000     14.03030000      0.00390391     -0.00018892     -0.00333026       8
H               6.74554000     14.33470000     14.42740000     -0.01032510      0.01554400      0.02504470       1
H               7.28259000     12.98910000     12.26140000     -0.00166866     -0.01752930     -0.01893710       1
O               4.43946000      1.72582000     17.38180000     -0.05515480      0.00692921      0.16712800       8
H               3.05024000      0.96894400     16.75430000     -0.05601220     -0.03552880     -0.02895020       1
H               5.42468000      1.90751000     16.15610000      0.11923000      0.02648040     -0.14672900       1
O              11.17100000      2.88898000      7.58811000      0.05286750      0.06301010     -0.03766350       8
H              11.14910000      4.80612000      7.55793000      0.00236954     -0.04558570      0.00260241       1
H               9.76942000      2.49521000      8.48853000     -0.05309210     -0.01632250      0.03652540       1
O              17.35770000     14.72170000      3.75931000      0.05183130     -0.07367210      0.08887240       8
H              16.67540000     12.99800000      3.82604000      0.01077550      0.02194490     -0.00771999       1
H              16.53580000     15.67560000      2.69010000     -0.05676060      0.05426540     -0.08692040       1
O               1.61835000     13.03670000     23.90780000      0.01863170      0.00155562     -0.03499050       8
H               0.76690000     12.75100000      0.96731800     -0.00689654     -0.00080763      0.02834560       1
H               3.25527000     13.76210000     -0.21883600     -0.00968566      0.00329005      0.01157250       1
O              12.27250000     12.75690000     11.87420000     -0.01938250      0.09631370     -0.01518610       8
H              11.84310000     15.63150000     11.23890000      0.00972405     -0.10572700      0.02122210       1
H              10.89720000     12.21660000     13.03440000      0.01334240      0.01807050     -0.01273970       1
O               9.24190000      6.31376000     20.52470000     -0.06242340      0.01266990      0.00562101       8
H               9.36021000      5.75574000     22.24820000      0.00718601      0.00359535      0.00366949       1
H               7.45145000      7.11373000     20.75620000      0.04985600     -0.01774330     -0.01264850       1
O              20.15960000     12.66010000     13.69630000     -0.08617530      0.00099537      0.05334540       8
H              19.73960000     14.07960000     12.72980000     -0.00593295      0.02151740     -0.01168980       1
H              21.54830000     11.92580000     13.15440000      0.08761980     -0.03169280     -0.04623410       1
O              16.30350000      4.26006000     17.67010000      0.06615450     -0.05750320     -0.18663200       8
H              15.46140000      5.06572000     18.74380000     -0.09605070      0.09320420      0.14237200       1
H              15.66400000      5.21983000     16.05530000      0.03423970     -0.03554880      0.04665030       1
O              24.10810000     14.55190000     10.46970000      0.07589120     -0.03599040      0.07836080       8
H              22.78710000     15.34250000      9.85805000     -0.08909910      0.05405060     -0.05166060       1
H              25.05690000     13.80270000      9.20436000      0.01219130     -0.01757360     -0.03616500       1
O               8.79711000     19.77810000      5.72603000     -0.02363360     -0.21450700     -0.16230300       8
H               9.86685000     18.16710000      5.79202000     -0.02976160      0.05172870      0.01353920       1
H               9.06073000     20.98940000      6.67386000      0.04869240      0.15890700      0.14807500       1
O              17.09840000      6.70534000     23.00170000     -0.00198058      0.03796930     -0.00017543       8
H              17.54620000      5.09512000     22.47690000      0.01085440     -0.04105670     -0.00818127       1
H              18.21950000      7.80121000     22.02830000     -0.01221810      0.00343120      0.00448633       1
O              11.84410000      7.31668000     24.87360000      0.04861350     -0.03472090     -0.04082160       8
H              12.75460000      7.04950000     23.10900000     -0.02485910      0.02299630      0.06150190       1
H              12.29590000      5.67929000      1.25368000     -0.01085180      0.02418940     -0.00264230       1
O               4.38003000      8.08694000     14.46790000     -0.07156650      0.03267260      0.04344490       8
H               5.63882000      9.19352000     15.10650000      0.01943660      0.00688491     -0.00582007       1
H               2.85395000      8.99250000     15.46080000      0.04763970     -0.03997170     -0.03356980       1
O               7.12220000     22.28420000     10.09210000     -0.10162000     -0.07767630     -0.13398400       8
H               6.65824000     20.51090000     10.31400000      0.00720854      0.02166740      0.00816808       1
H               8.04099000     22.93040000     11.23380000      0.09790800      0.05686970      0.12671200       1
O              13.12180000      8.43601000      9.46422000      0.00656647     -0.12728300      0.00547477       8
H              14.31600000      7.54536000     10.66710000     -0.01022320      0.04981150     -0.03413890       1
H              13.06620000     10.10620000      9.11320000      0.01351420      0.06805450      0.01644030       1
O               1.56773000      0.86922400      9.03106000      0.01152120     -0.04173690     -0.06337820       8
H               1.30497000      2.06528000     10.27070000     -0.01475540      0.04294870      0.01571150       1
H               0.98188400      1.27110000      7.26024000     -0.00108514     -0.00072936      0.05291180       1
O               0.46438200      2.29412000     20.63240000     -0.14733200      0.19821000      0.16939200       8
H               1.08912000      1.31376000     19.63110000      0.09790020     -0.14780700     -0.17783000       1
H              23.66550000      3.56770000     19.84760000      0.04720440     -0.05595080      0.00641098       1
O              22.31550000      0.62065300      5.00688000      0.00958530     -0.17135900      0.10125000       8
H              22.33920000      1.95930000      4.20133000      0.02740330      0.19705000     -0.11313000       1
H              20.64060000      0.23462300      4.59709000     -0.03484910     -0.02471240      0.01166660       1
O              10.12970000     22.05430000      0.81921800     -0.01622410      0.02629880     -0.14908700       8
H               9.88599000     21.64940000      2.37292000     -0.01850360     -0.04105490      0.14779300       1
H               8.49687000     21.52500000     24.49290000      0.03339240      0.01363950      0.00056092       1
O              16.41110000      9.41430000      3.99596000     -0.07844540     -0.05315140      0.03039800       8
H              16.03650000      8.16028000      5.54990000      0.00839541      0.05068660     -0.05629790       1
H              14.69020000      9.24810000      2.96794000      0.06104080     -0.00340254      0.02824280       1
O              12.50650000     15.28510000      6.59175000     -0.07293410     -0.08367140      0.09597550       8
H              13.10420000     16.52040000      5.72289000      0.06999500      0.09257860     -0.08157170       1
H              13.10140000     13.67030000      6.13217000      0.00841670     -0.00047851     -0.01154340       1
O              11.58210000     24.82350000     13.42630000     -0.06051330      0.04229130      0.02095060       8
H              12.25920000     23.25760000     13.63690000      0.03895080     -0.05506290      0.00009055       1
H              10.41250000      0.27239800     14.90290000      0.02219420      0.01499660     -0.02110890       1
O              15.94900000     21.55850000      1.07279000      0.05155700      0.01512520      0.00144074       8
H              14.34760000     20.91590000      1.48021000     -0.01059600     -0.02270230      0.00112543       1
H              17.47660000     20.46960000      1.33676000     -0.04224780      0.00450944     -0.00722215       1
O              19.36230000     17.30730000     23.09210000      0.10692100      0.01290370     -0.00453895       8
H              21.78810000     17.16620000     23.10130000     -0.11604400      0.01062390     -0.00204733       1
H              19.08780000     18.77860000     21.91090000      0.00981186     -0.02837460      0.01339750       1
O               3.85797000     14.93130000     18.07540000      0.02099340     -0.05889330      0.02211130       8
H               4.19581000     13.95210000     19.66260000     -0.01005660      0.03718220     -0.01285990       1
H               3.96640000     13.33090000     17.12620000     -0.01148090      0.02733130     -0.00866656       1
