192
TotEnergy=-1103.32441000 cutoff=-1.00000000 nneightol=1.20000000 pbc="T T T" Lattice="24.49849000       0.00000000       0.00000000      -0.00000100      24.49849000       0.00000000      -0.00000100      -0.00000100      24.49849000" Properties=species:S:1:pos:R:3:force:R:3:Z:I:1
O              22.47380000     -3.98412000    -30.03570000      0.00791832      0.00510894      0.00153627       8
H              21.20720000     -3.81541000    -31.41920000      0.01976290     -0.00932429      0.00718412       1
H              23.51070000     -5.50791000    -30.13090000     -0.02192430      0.01039640     -0.01061000       1
O              49.57990000     49.23370000     -3.64592000     -0.01521560     -0.02284710     -0.06192720       8
H              50.44310000     50.27290000     -5.02130000     -0.01343500     -0.03550620      0.03658020       1
H              48.74190000     47.58480000     -4.63099000      0.01865000      0.05282710      0.03164000       1
O              13.03310000      1.74113000     17.37480000     -0.02258240      0.08835600      0.01798250       8
H              12.93950000      2.40058000     19.14610000      0.01330860     -0.02017150     -0.03124820       1
H              13.21750000      0.05425900     17.14360000      0.00131838     -0.07556580      0.01746280       1
O              -5.57064000     -9.16904000     -3.46672000     -0.03103030     -0.08024670     -0.07451240       8
H              -4.52954000    -10.74010000     -3.72616000     -0.01276130      0.02443500      0.00583112       1
H              -5.02886000     -8.31490000     -2.12583000      0.03904870      0.05460710      0.07831940       1
O               4.73059000     32.37570000     18.89340000      0.04464140      0.02533550      0.02918170       8
H               6.22791000     33.87780000     19.31660000     -0.04885590     -0.04445910     -0.00241664       1
H               3.88324000     32.66720000     17.37050000     -0.00487672      0.01060630     -0.02671180       1
O              -5.53649000     10.44170000      7.30188000     -0.01684020     -0.03157410     -0.02518930       8
H              -6.48192000     11.76790000      8.16686000     -0.00268942     -0.00138445     -0.01046950       1
H              -6.54262000      9.69372000      5.79399000      0.02133620      0.03308240      0.03039160       1
O              44.40320000     29.23080000     14.67690000     -0.00200106     -0.00229955     -0.01620060       8
H              46.30520000     29.07160000     14.28580000     -0.05409240     -0.02223750     -0.00127095       1
H              42.93910000     27.98510000     14.00890000      0.05691400      0.01677140      0.01889870       1
O               1.14127000    -31.65840000      8.00689000     -0.03713200      0.09084810      0.00340432       8
H               2.47856000    -31.10500000      9.22416000     -0.00152208     -0.01154390     -0.01250280       1
H               0.07645800    -29.74530000      7.84001000      0.02667270     -0.07661350     -0.00259774       1
O              32.84780000    -34.29290000     17.72910000     -0.03955430      0.04541520     -0.07831090       8
H              31.25460000    -34.18950000     16.40960000      0.05168120     -0.01601930      0.05251790       1
H              32.74180000    -35.60700000     18.88810000     -0.01997020     -0.03391760      0.02476620       1
O              10.08640000    -27.59450000    -25.27740000      0.05856220     -0.04075770      0.02649620       8
H              12.03740000    -28.44350000    -25.50340000     -0.08241730      0.03869070      0.02323700       1
H               9.31867000    -28.18010000    -23.56040000      0.02473250      0.00297542     -0.04392890       1
O             -10.24670000      1.27592000      8.88503000     -0.08328430     -0.14424400      0.02796670       8
H              -9.54531000      2.71881000      8.58921000      0.05197510      0.12961900     -0.03871340       1
H             -12.03350000      1.08171000      8.33172000      0.02860500      0.01253920      0.00693076       1
O             -11.17850000     29.55260000     53.51780000     -0.05902660     -0.05083010     -0.04932640       8
H             -13.11720000     29.85250000     53.55450000      0.05455320     -0.00682369     -0.00138625       1
H             -11.06350000     27.91650000     52.21660000      0.00467845      0.05621190      0.04814040       1
O              12.12510000    -34.27470000    -16.31280000     -0.00043690      0.01350280     -0.04808250       8
H              12.10670000    -34.14020000    -18.24430000      0.01196680     -0.00636484      0.03822720       1
H              10.73130000    -35.45430000    -16.03170000     -0.00029996      0.00152682      0.00431799       1
O              28.24440000     14.37050000     38.86650000     -0.02955340     -0.01451840     -0.02773070       8
H              26.70440000     15.26440000     39.58740000      0.02109600     -0.03298520     -0.01390630       1
H              27.72180000     12.86760000     37.46210000      0.01733120      0.05410780      0.04379420       1
O              -0.95154000      1.17363000      4.40375000      0.06426760      0.07699000      0.08931310       8
H              -0.70180900      0.27985600      2.96568000      0.01713420     -0.04683060     -0.06430860       1
H               0.93657100      1.92561000      4.85440000     -0.08013280     -0.03134340     -0.01676480       1
O             -31.64340000     21.70880000     32.87910000     -0.05534070      0.01510400     -0.04434190       8
H             -33.07510000     23.12150000     32.64400000      0.05078090     -0.03586050      0.01573930       1
H             -31.93730000     20.63910000     31.31830000      0.00730536      0.01214770      0.02911040       1
O             -34.05150000     12.60560000     23.76230000      0.06378430      0.09630880      0.01276490       8
H             -34.78790000     11.88090000     22.38540000     -0.03012980     -0.03439950     -0.05253050       1
H             -32.94900000     14.20940000     22.79570000     -0.03137090     -0.06828930      0.03840070       1
O             -21.78570000     66.32110000    -21.68230000      0.00227620     -0.05532580      0.01196320       8
H             -22.07400000     66.40640000    -19.85170000     -0.00324421      0.00573472     -0.00938210       1
H             -21.91040000     64.31470000    -21.97080000      0.00284849      0.06013810     -0.01154190       1
O              68.27230000     21.18100000     39.20320000     -0.00960184     -0.04923570      0.00808465       8
H              67.54440000     22.81210000     38.81640000     -0.01896090     -0.00999504      0.00381165       1
H              67.07690000     19.62390000     39.46160000      0.02539770      0.05749900     -0.00338540       1
O              56.38380000    -19.20370000      3.99241000      0.04794080      0.11355000     -0.08757880       8
H              55.91990000    -20.15410000      5.25003000     -0.03843560     -0.08764330      0.07760530       1
H              56.78840000    -19.76220000      2.31589000     -0.00982568     -0.03031970      0.00529208       1
O              29.23480000     18.51260000    -13.44620000     -0.08662600     -0.01140970      0.05547970       8
H              30.82960000     18.42840000    -13.99220000      0.09210700      0.00080456     -0.04026380       1
H              29.04930000     16.98020000    -12.35670000     -0.00130367      0.01416480     -0.00228641       1
O             -15.29130000      3.62471000     61.57490000      0.02701070      0.01382480      0.01708370       8
H             -14.06360000      4.96508000     60.92930000     -0.02029020     -0.02438870      0.01293420       1
H             -14.51780000      2.83726000     63.11120000     -0.00898466      0.01514520     -0.02296010       1
O               8.14321000      1.95691000     -0.56636800     -0.01188160      0.03017140      0.02485210       8
H               7.74219000      2.11892000     -2.29602000      0.00291932     -0.00780239     -0.01140780       1
H               9.36783000      0.68933400     -0.24915000      0.00892136     -0.01983680     -0.01186940       1
O              44.24340000      4.32924000     26.63540000     -0.02706050      0.06071420      0.02813080       8
H              43.67090000      6.11837000     27.38380000      0.01117520     -0.05627950     -0.03450590       1
H              45.52490000      3.78056000     27.77530000      0.00990939     -0.01158270      0.01255760       1
O              -0.13625800     61.63570000     30.96420000      0.08348260     -0.02620610     -0.02503050       8
H              -1.71718000     61.12500000     31.35710000     -0.07123120     -0.00662563      0.01815470       1
H               0.47930500     63.25370000     31.38030000     -0.01637430      0.03215110      0.01515050       1
O              12.36880000     31.93760000     10.53180000     -0.07065020      0.05412530     -0.02344700       8
H              11.14750000     33.21170000      9.47875000      0.03525370     -0.03880150      0.04787930       1
H              13.52820000     31.46160000      9.29304000      0.02930090     -0.01618650     -0.02104430       1
O             -15.81240000     19.55860000     18.76220000      0.04568280     -0.11413600     -0.15731600       8
H             -15.99980000     17.68960000     19.25090000      0.01002770      0.02210520     -0.04405250       1
H             -16.21850000     20.01530000     20.20540000     -0.05328610      0.09764940      0.20165800       1
O              32.27090000     35.31350000     52.08650000      0.02583450     -0.09258000     -0.00097710       8
H              31.86920000     33.34740000     52.04660000      0.02930760      0.05284350      0.00136942       1
H              30.58960000     35.65990000     52.33810000     -0.05818530      0.03631060     -0.00026123       1
O              12.46660000     33.93460000     19.98570000      0.03027800     -0.07207100     -0.06008010       8
H              13.05980000     33.56370000     18.08560000     -0.01333000      0.02217660      0.04626800       1
H              12.82880000     32.03870000     20.40890000     -0.00332862      0.04469690      0.00993307       1
O               7.28610000    -25.83490000     15.27560000     -0.03708150      0.01781880     -0.07616940       8
H               6.85767000    -26.75170000     13.65130000      0.00825897      0.02474600      0.03574700       1
H               8.18512000    -27.04850000     16.12610000      0.02564260     -0.03857610      0.03624670       1
O               0.50937100     22.20920000      0.86233700      0.02948530     -0.08875280      0.05480100       8
H               1.70020000     20.55370000      1.34025000     -0.05129060      0.06120520     -0.01582490       1
H               1.33484000     22.96460000     -0.48446200      0.01613650      0.02026910     -0.03862400       1
O               0.38356600      3.02220000     14.15160000      0.05853090     -0.05596450      0.03764470       8
H               0.89766000      1.53608000     12.98380000     -0.02794510      0.03461830      0.02720290       1
H               1.46149000      2.41963000     15.84830000     -0.03660290      0.02904050     -0.06212600       1
O             -34.31020000     53.84570000    -27.75400000     -0.09873720     -0.01735910      0.03624140       8
H             -32.70780000     54.04730000    -28.23910000      0.08896220      0.01972370     -0.04194150       1
H             -34.17010000     53.05170000    -26.13570000     -0.00666119     -0.00561290      0.00937111       1
O               3.68125000     51.82150000    -16.01640000     -0.04183430      0.00659014      0.07413570       8
H               3.59415000     53.25370000    -14.66190000      0.00977174     -0.03273060     -0.04665510       1
H               2.51299000     50.55670000    -14.98420000      0.04004310      0.02687300     -0.04010700       1
O             -36.62290000     40.05720000      2.72794000      0.26488600     -0.07341200     -0.01301610       8
H             -36.13930000     38.76590000      1.48867000     -0.01187100      0.00768335      0.00401172       1
H             -38.08790000     40.48440000      2.87952000     -0.25303600      0.06963570      0.00696384       1
O              14.67160000     31.86380000     15.45700000      0.00351736      0.00338966     -0.07193320       8
H              13.94340000     31.78230000     13.50880000      0.03144230      0.00892094      0.07525010       1
H              16.55760000     32.02940000     15.32650000     -0.03754410     -0.00667046      0.00089565       1
O             -15.83040000    -13.25400000      8.66547000     -0.07353480     -0.02457960     -0.03182410       8
H             -16.18270000    -13.97830000      6.87083000      0.01328940      0.02614060      0.03959030       1
H             -17.72860000    -12.96650000      9.28927000      0.05572300     -0.00925670     -0.01203950       1
O             -44.86330000      2.12138000     17.64340000     -0.05647160     -0.02252770     -0.00232506       8
H             -43.73570000      1.00961000     16.87020000      0.03165190     -0.02579700     -0.01611690       1
H             -44.17000000      3.62267000     18.11920000      0.02976280      0.05515750      0.01450560       1
O             -20.93900000    -13.22740000     34.99950000     -0.00372381     -0.04732520      0.01065150       8
H             -20.90600000    -15.10700000     35.63350000     -0.00556761      0.04478380     -0.01710350       1
H             -22.38140000    -12.94780000     33.85060000      0.00965625     -0.00896046      0.00410070       1
O              17.11750000     17.47580000     29.34910000     -0.05057820     -0.03173370     -0.00182135       8
H              17.06730000     16.28390000     30.93310000     -0.00358651      0.02686690     -0.04669820       1
H              15.51130000     17.09860000     28.16050000      0.05197010      0.00717767      0.05017460       1
O             -23.32960000     -0.89038900     35.60280000      0.09638470      0.02092940      0.08100670       8
H             -22.27590000     -2.26219000     36.33170000     -0.00965871      0.02207880     -0.00872736       1
H             -24.35090000     -1.72005000     34.58160000     -0.08414450     -0.05044670     -0.07032080       1
O              41.87730000      5.56017000     33.49480000     -0.03912570      0.05034190     -0.07069220       8
H              42.84850000      5.41868000     34.84920000      0.05642870     -0.03260920      0.09047390       1
H              42.35080000      7.38224000     33.29200000     -0.01182360     -0.01424660     -0.02006520       1
O              -7.98204000    -31.87300000     -7.52621000     -0.05743940     -0.05745580     -0.07882210       8
H              -7.25467000    -32.73020000     -6.13528000      0.01693640     -0.00505026      0.02309540       1
H              -9.14854000    -33.36350000     -8.52117000      0.03955730      0.05956680      0.03692450       1
O              52.94580000    -18.10540000    -11.68540000      0.24891200      0.10683100     -0.05336860       8
H              54.76510000    -19.22180000    -11.28710000     -0.06737670      0.05222010     -0.02078920       1
H              51.87580000    -19.14650000    -11.24600000     -0.17510600     -0.15324300      0.07112100       1
O               8.84246000      0.03544100      9.04230000      0.19594900     -0.03559310      0.10496100       8
H               9.00601000      1.24715000     10.46240000     -0.00875795     -0.00513755     -0.00851665       1
H               7.50143000      0.25107600      8.26652000     -0.18820100      0.03832630     -0.10206700       1
O             -33.37850000     -3.19181000     47.46440000     -0.03705190      0.00327828     -0.03462710       8
H             -34.12280000     -3.48526000     45.60340000      0.03192010      0.00790325      0.03420850       1
H             -31.77830000     -3.97086000     47.80850000      0.00477644     -0.01225220     -0.00454419       1
O              12.43130000    -10.41450000     -9.92543000      0.01921850     -0.02999730     -0.04135730       8
H              11.23390000    -10.68040000     -8.51061000      0.00026799     -0.00553351     -0.02585070       1
H              12.53790000    -11.75750000    -11.38680000     -0.01432690      0.04189790      0.06475330       1
O              21.20750000     17.39940000     11.83990000     -0.02568880     -0.07052880      0.05800100       8
H              20.32640000     18.85310000     11.69100000     -0.04198410      0.06753190      0.01256150       1
H              22.25710000     17.49110000     10.53870000      0.07325300     -0.00401588     -0.07515130       1
O              13.66350000     20.83740000     -6.25344000     -0.03393820     -0.00139455      0.00900906       8
H              11.80770000     20.26660000     -5.86448000      0.04632140      0.00364529     -0.02124800       1
H              14.70510000     19.59110000     -7.24033000     -0.02229300      0.00495173      0.02370300       1
O              22.29590000     46.06430000     32.34910000      0.05184380      0.01471910     -0.01857960       8
H              20.56680000     46.06260000     32.84240000     -0.03007450      0.00853127      0.00077605       1
H              22.63710000     47.56050000     31.23630000     -0.01108760     -0.01974630      0.00968016       1
O              -7.83380000      8.77282000      2.75189000     -0.04284340      0.00568406     -0.03210590       8
H              -8.53764000      9.93423000      1.31540000      0.02744390     -0.02281990      0.03867720       1
H              -9.26244000      7.55044000      3.04913000      0.02017630      0.01411950      0.00150927       1
O              16.23940000    -23.35700000     13.84940000      0.03904570     -0.00753003     -0.05044470       8
H              15.48660000    -23.46640000     12.11820000     -0.00385562      0.00520270      0.03420850       1
H              15.25110000    -22.79710000     15.24700000     -0.02416330      0.01211780      0.00593671       1
O              -1.26501000     15.06500000     40.80300000     -0.02993860     -0.00256875     -0.05115320       8
H              -1.75651000     13.43230000     41.52990000      0.00352727      0.01336070     -0.00147810       1
H              -2.28048000     15.27670000     39.12490000      0.02914250     -0.00096231      0.05459330       1
O              44.41220000     43.25690000      0.57956800      0.04317070      0.04703910      0.01675070       8
H              45.85030000     44.67950000      0.45016400     -0.04793190     -0.05560210      0.01063830       1
H              43.99100000     42.91330000      2.41262000      0.00826098      0.00843783     -0.03161830       1
O              21.89640000     11.18420000    -29.33680000     -0.08562830      0.01388500     -0.07357460       8
H              23.19690000     10.63490000    -28.44540000      0.08956150     -0.02819530      0.06724220       1
H              21.22460000      9.58949000    -30.01570000     -0.00850945      0.01518330      0.01002340       1
O             -16.65440000     43.34100000      3.32500000     -0.01431520     -0.00270403      0.05246250       8
H             -18.39230000     42.58730000      3.08464000      0.02448820      0.01531550      0.00422654       1
H             -16.39650000     43.60170000      5.30248000     -0.01015580     -0.01583960     -0.05712190       1
O               9.15631000    -30.10850000     32.96610000      0.03955520      0.06514630     -0.02458550       8
H              10.74540000    -31.28960000     32.73610000     -0.03722830      0.03229300      0.01169610       1
H               9.50506000    -28.01050000     32.67640000     -0.00323367     -0.08986000      0.02288490       1
O               2.47075000     36.78770000      1.90341000     -0.01840190     -0.06076170     -0.04381250       8
H               1.58872000     36.76960000      3.46978000     -0.01601620     -0.00972584      0.01506910       1
H               1.59791000     35.17860000      0.78158600      0.03704370      0.06031760      0.02606340       1
O              -7.24464000     -9.80869000      9.40630000     -0.00370391      0.00518349     -0.00163743       8
H              -8.92975000     -9.26331000     10.01960000      0.03008200     -0.00141278     -0.00360300       1
H              -5.69972000     -8.97379000     10.06660000     -0.02958090     -0.00084998      0.00978592       1
O              -5.45814000      6.41901000     19.46930000      0.03140850     -0.01588340     -0.01356940       8
H              -4.44030000      5.58039000     20.77080000     -0.00139101      0.01263340      0.00356472       1
H              -4.56639000      5.65780000     17.98860000     -0.02787290      0.00719499      0.00123462       1
O              25.70260000    -15.76050000     -1.85909000     -0.04593510     -0.05625970     -0.01094380       8
H              24.27910000    -17.40500000     -1.70702000      0.05074850      0.05046420     -0.00458161       1
H              26.73160000    -16.10950000     -3.43192000     -0.00414253      0.00341156      0.02973490       1
O              22.49590000      4.68871000     47.23670000     -0.00954915      0.04022880      0.00314883       8
H              21.41320000      4.25522000     48.68090000      0.00050721      0.00211859      0.00537687       1
H              23.27720000      3.29070000     46.51620000      0.01886990     -0.04374150     -0.01163770       1
O              15.32370000     25.65100000     50.32240000     -0.00824001     -0.02974690     -0.02605130       8
H              17.00560000     26.21900000     50.58730000      0.01313720      0.00803333      0.00608775       1
H              15.50740000     24.03640000     49.23100000     -0.01091750      0.02700230      0.01813620       1
O             -16.51490000     10.84400000     20.88740000     -0.02218480      0.00947479      0.02628700       8
H             -14.82030000     10.16950000     20.54180000      0.01673640     -0.00544825      0.00614151       1
H             -16.86060000     11.02470000     22.72920000      0.00754284     -0.00595570     -0.02912490       1
