192
Lattice="23.15374 0.0 0.0 0.0 23.15374 0.0 0.0 0.0 23.15374" Properties=species:S:1:pos:R:3:force:R:3 TotEnergy=-1102.11853 cutoff=-1.0 nneightol=1.2 pbc="T T T"
O        6.87922000       6.64655000       3.99177000      -0.06829440      -0.03824780      -0.03537310
H        5.91651000       6.54647000       2.28495000       0.03282720       0.01126100       0.04649720
H        5.49518000       5.70145000       4.99937000       0.03909030       0.01337540      -0.01806380
O       16.59590000       5.71793000      18.65620000       0.05516130      -0.00603102      -0.05922050
H       16.89070000       4.34739000      19.73300000      -0.00718614      -0.03295920       0.03328380
H       15.22870000       6.71079000      19.17990000      -0.04607710       0.02606130       0.02373350
O        4.23436000      18.02470000       3.63725000      -0.09131120       0.02968910      -0.09177050
H        2.76429000      17.45650000       1.47868000       0.06191110       0.02706150       0.07709290
H        3.50279000      19.85090000       3.77248000       0.02273490      -0.04856130      -0.00626161
O       17.10160000      19.98260000       6.70723000      -0.06486350      -0.05392160       0.01556610
H       15.85320000      18.12090000       6.76880000       0.04987450       0.06901640       0.00145713
H       15.81980000      21.40390000       6.79677000       0.02142250      -0.02299040      -0.00272177
O        2.56964000       0.31344400       3.02880000      -0.00703056       0.02076820      -0.04089560
H        3.43772000       1.05914000       4.46755000      -0.00862913       0.00671585      -0.00658292
H        2.13627000       1.71342000       1.67739000       0.02037530      -0.03655870       0.04048350
O       19.57970000       9.25058000       6.75024000      -0.04033480       0.03276750       0.05119120
H       18.31770000       7.88393000       7.13216000       0.02906640       0.01488430       0.00103718
H       18.85780000      10.60800000       7.96228000       0.01424000      -0.03369050      -0.04620110
O       13.64230000       0.47350500       7.15434000      -0.07480110       0.05701970      -0.01471110
H       13.93900000       2.43740000       6.83588000       0.00942929      -0.05818160      -0.00285328
H       11.84000000       0.26001600       6.28853000       0.05805850       0.00677565       0.01970000
O       12.52230000       0.61119400      12.57520000       0.03365770       0.02207130      -0.12184500
H       13.93150000       2.11371000      12.95220000       0.00116793      -0.02079650       0.00557062
H       11.89900000       1.11352000      10.73600000      -0.02621130       0.02720760       0.03770960
O        2.85925000      12.72440000       8.74765000       0.03903240      -0.04776900       0.09987230
H        2.55870000      11.97370000      11.55020000      -0.00369348       0.03565610      -0.06869700
H        1.32573000      13.60200000       8.79185000      -0.03055140       0.01588580      -0.01369510
O       11.36330000      16.25200000      16.81010000       0.04989940       0.09806700      -0.02355910
H       12.89210000      17.85830000      16.41760000      -0.06573860      -0.07578510       0.01124320
H        9.84951000      17.26590000      16.38320000       0.01648660      -0.01411460       0.01188060
O        3.24576000      16.65740000      21.54890000      -0.02010100      -0.01211930      -0.00416568
H        2.61329000      16.35090000      19.82160000       0.01059910      -0.00069359       0.02281290
H        3.82931000      15.05270000      22.18790000       0.00758777      -0.00475605      -0.01212470
O       20.77110000       1.05969000      13.56540000      -0.00156554      -0.07012470      -0.03739180
H       21.75570000       0.48215600      15.04580000      -0.01762840       0.01557320      -0.00863316
H       20.57920000      22.43260000      12.67090000      -0.00087651       0.07270400       0.03578980
O       22.19340000      15.22110000       7.49409000      -0.02125330      -0.03234550      -0.01730460
H       22.70319800      16.70380000       8.34573000       0.01590730       0.04218760      -0.00305366
H       22.83870000      15.28430000       5.72109000      -0.01954480       0.00336940       0.02664310
O        4.39486000       6.77339000      20.11730000       0.03878150      -0.00722732       0.04667100
H        6.03176000       5.72058000      19.80370000      -0.02454320       0.02020650      -0.01725590
H        3.43241000       7.36994000      18.74340000       0.00414847       0.00073333      -0.03303120
O       13.75020000      17.41590000       0.42238500      -0.01093560      -0.00204638       0.02407210
H       13.29440000      16.95120000       2.17475000       0.01170060       0.01104810      -0.02291960
H       12.25460000      16.45790000      22.73340000       0.01531310       0.00011164      -0.00349100
O        6.37044000      12.80260000      19.26750000      -0.00798390      -0.06933750       0.05807960
H        6.39836000      13.92040000      17.91350000      -0.00959293       0.01547390      -0.03627610
H        5.22948000      11.32770000      18.94470000       0.02697070       0.04001800      -0.00225556
O        9.34657000      14.98020000       4.27775000       0.12678800       0.18492700      -0.02834430
H        8.44468000      13.75820000       4.72762000      -0.11795400      -0.15525300       0.05872740
H        8.96375000      16.37320000       5.48597000      -0.00736293      -0.02609140      -0.02286270
O        1.29930000       3.58457000      22.51160000      -0.09074050       0.06656140      -0.04146170
H       22.59777000       4.43081000      22.94536900       0.08006120      -0.03766730      -0.00297858
H        1.66348000       4.68052000      20.88660000       0.00889766      -0.04000210       0.05538030
O       14.06140000      10.83460000       6.20779000      -0.00983767       0.00802530       0.04748300
H       13.16870000      10.62730000       4.63615000      -0.01203580      -0.01738320       0.00507910
H       13.19510000       9.95592000       7.72406000       0.02298160       0.01983820      -0.05144070
O       19.27270000      20.44310000      17.33500000       0.01536760      -0.01751230       0.00435200
H       13.29480000      22.47120000      11.12610000       0.01589240       0.02196790       0.05501550
H       18.62350000      18.73030000      17.20280000       0.00317307       0.01493050       0.00252619
O       16.27260000       4.39741000      13.75010000       0.07633170      -0.06020930       0.03461030
H       16.41620000       4.55780000      15.68610000      -0.02373930       0.01661540      -0.01650080
H       18.25170000       3.42866000      13.88300000      -0.07301780       0.02077770      -0.02334200
O       12.30650000       7.70857000       2.66837000       0.01602300      -0.04008240       0.05429060
H       10.74440000       6.77014000       3.30349000       0.03458280       0.02419790      -0.01524600
H       13.87320000       6.96115000       3.83829000      -0.05737060       0.01115960      -0.05587230
O        4.76015000      21.48070000      20.90640000      -0.00520611      -0.01814990       0.03103440
H        3.29951000      20.35900000      20.52300000       0.02776470       0.02246740       0.01324920
H        5.30289000      20.98010000      22.68140000      -0.01656330       0.00891419      -0.04472510
O        1.75282000       8.61981000      16.38370000      -0.06796430      -0.01046350       0.02106860
H        1.08081000       7.20101000      15.29440000       0.01316030       0.00272068      -0.00345098
H        0.27150200       8.65013000      17.65960000       0.03012120      -0.00168950      -0.01553510
O        4.23609000       3.12205000       6.81599000       0.01475350       0.02018420       0.02308560
H        2.83239000       4.01546000       7.62829000       0.01371890      -0.00650623      -0.00622696
H        5.78654000       3.27772000       7.91094000      -0.03143330      -0.00788794      -0.01014180
O        0.64349900      19.80190000       8.56615000      -0.01599950      -0.03090970       0.08719490
H       20.80920000      20.26480000      10.68790000       0.05545820      -0.03251630       0.00034866
H        0.21689400      20.84680000       7.25293000      -0.01915580       0.03507030      -0.03828980
O        1.18468000      12.96380000      14.03660000      -0.05623700      -0.05422310      -0.00223442
H        0.51709300      11.40940000      14.98440000       0.04561960       0.01624190      -0.02133500
H       22.54346700      13.79780000      14.28080000       0.01881030       0.00517241      -0.01731760
O       21.74800000      14.30410000       2.70864000       0.03925580       0.00948328      -0.06596840
H       21.05700000      15.20730000       1.17067000       0.00024695      -0.00913024       0.04000760
H        0.37804800      14.15510000       2.03750000      -0.03243430      -0.00911525       0.02113430
O       21.99320000       7.31669000       2.17385000      -0.04548790       0.00586908      -0.00266016
H        0.07254200       8.52417000       1.64462000       0.02287460       0.01091950      -0.00107136
H       20.56140000       8.33381000       2.82392000       0.02501330      -0.01154540      -0.00452443
O        4.52243000      15.25790000      15.79380000       0.12222300       0.11343900      -0.04095110
H        5.96045000      16.09360000      13.98980000      -0.05485310      -0.04782810       0.07315680
H        3.43053000      14.29480000      14.87680000      -0.03788410      -0.03516430      -0.02990040
O       18.83770000      13.42550000      19.32420000       0.05387790       0.01281530       0.04771850
H       18.63840000      15.24140000      20.52910000       0.00911133       0.00894427       0.00870414
H       19.56890000      12.08650000      20.40750000      -0.00432993      -0.00083656      -0.00652214
O        9.92625000       0.89938700       2.61208000      -0.00919810       0.01381400      -0.03446080
H        8.38949000       1.39586000       1.58201000       0.03773680      -0.01213620       0.02710990
H       11.36670000       1.03108000       1.40599000      -0.03342800       0.00112007       0.02242380
O       17.53270000      13.81190000       9.93304000       0.02353220       0.00645438      -0.00767640
H       19.24820000      13.67980000       9.13912000      -0.02765500       0.02177650      -0.00267678
H       16.57310000      15.21560000       9.12469000       0.01892820      -0.02985320       0.00842908
O       10.55690000       0.76769900      17.19850000      -0.03520660      -0.01056370      -0.00474783
H        8.86189000      23.14140000      17.72760000       0.04511680       0.01406710      -0.01496350
H       10.37380000       0.61526200      15.33660000       0.00242301       0.00150139       0.03852290
O       19.41300000      18.65710000      11.85100000       0.01883210       0.00830538      -0.01792010
H       18.91440000      18.91060000      10.08640000      -0.02792570      -0.02991530      -0.01946160
H       20.12350000      16.86520000      12.13900000      -0.01254140       0.04035170      -0.00908934
O       14.46400000      19.65190000      13.63860000      -0.00608083      -0.00389543       0.01283150
H       12.81840000      20.49210000      13.14360000       0.05653110      -0.04806840       0.00181716
H       16.06250000      18.90970000      12.86580000      -0.05157750       0.02525270       0.00337740
O       16.47540000       1.89469000      22.04860000       0.00076596      -0.06729490       0.01208010
H       17.62950000       0.30235000      21.73730000      -0.02587110       0.05421750       0.00802867
H       14.19320000       0.72322300      21.84280000       0.03960230       0.01538880      -0.00454546
O       20.71950000      22.07810000      21.75920000      -0.03663690      -0.04046630      -0.05342940
H       20.86250000      21.48190000      19.83100000      -0.01990280       0.00254038       0.02697970
H       22.21360000      22.76722000      22.30710000       0.04575550       0.01957300       0.01667160
O        3.27794000      10.18450000       0.40389200       0.06466040      -0.00843024      -0.01813890
H        4.44106000      10.77630000       1.83370000      -0.02391770      -0.01661700      -0.03025900
H        4.68438000       9.04946000      21.82774000      -0.05747980       0.01385680       0.05499180
O        7.89922000       9.58808000      10.67300000       0.02268410      -0.04543090      -0.01059640
H        9.76626000       9.54825000       9.92854000      -0.07148610      -0.02385840       0.03426120
H        7.10303000       7.83714000      11.50610000       0.04727940       0.05509760      -0.01858000
O        0.80258800       2.07089000      16.92430000      -0.07093060      -0.05670120       0.08454700
H        1.18382000       0.15764800      16.95500000       0.00432956       0.03684770       0.00558935
H       22.14373000       1.83414000      18.58380000       0.07978250       0.01516660      -0.06823150
O       20.78230000       8.20439000      19.85170000       0.04867930      -0.00295975       0.09594150
H       20.86630000       7.37138000      21.78810000       0.01124130       0.04111090      -0.06422260
H       19.17820000       7.59719000      19.50440000      -0.05442690      -0.02264430      -0.03112620
O        8.68331000       5.05770000      18.77600000       0.06201490       0.01368930       0.03753520
H       10.03900000       6.15048000      19.75470000      -0.03398660      -0.03099370      -0.03321890
H        9.55690000       3.39475000      18.31170000      -0.01263730       0.03301260       0.00530951
O       12.48940000      22.27840000      21.62610000       0.03870770      -0.04201820      -0.01022250
H       13.40400000      20.84020000      22.72690000      -0.03682630       0.02443160      -0.04285700
H       12.31170000      21.78390000      19.71540000       0.00746623       0.01492010       0.05324340
O        1.42298000      19.96180000      17.18560000      -0.01350960      -0.01196020      -0.00745643
H       22.95484100      18.99320000      16.72510000       0.03649920       0.02549050       0.00811191
H        3.06542000      19.23770000      16.70880000      -0.03181890      -0.01261850      -0.00610486
O       13.70320000      16.19950000       7.56521000      -0.02138910      -0.01118950      -0.07955310
H       12.90150000      17.30680000       6.20342000       0.00803453      -0.02643430       0.04103760
H       13.52170000      14.42560000       6.59695000       0.00825288       0.03196210       0.03605740
O        5.94653000      17.36370000       8.04879000      -0.02147520      -0.06803060       0.03516080
H        4.27542000      18.02160000       7.49808000       0.01983990      -0.01533400      -0.00066430
H        5.60915000      15.43580000       8.66512000       0.00555839       0.06595920      -0.02851710
O        1.55569000       5.04227000      12.92860000      -0.03662460      -0.03375300      -0.01254420
H        1.35223000       5.86340000      11.16630000      -0.00809821      -0.02942170       0.03426240
H        0.62141600       3.22007000      13.40530000       0.03120360       0.07745220      -0.03095860
O       18.98170000      17.03150000      22.50550000      -0.06673860       0.00278821      -0.01322460
H       19.63380000      18.79340000      22.06050000      -0.01155650      -0.01899740       0.00525490
H       16.96360000      17.16300000      23.12530000       0.05631030       0.00213539      -0.01861460
O       21.18070000      22.43010000       5.04619000      -0.00706576      -0.00367787      -0.01529540
H       22.42450000      21.85930000       3.74002000      -0.02880540       0.01048600       0.02296440
H       19.59070000      21.41710000       5.27078000       0.03433950       0.00585531      -0.01337990
O        6.07112000      11.38060000       5.19014000      -0.04817640      -0.00891331       0.04678790
H        4.70151000      11.99990000       6.42502000       0.01977850       0.02040470      -0.02634590
H        5.90659000       9.78068000       6.10913000       0.03017440       0.00040766      -0.02753490
O        7.77219000       1.84798000      10.27090000      -0.01595400      -0.03268280       0.04584430
H        7.45619000       2.37696000      12.07890000       0.00286500       0.00208999      -0.03762080
H        6.81590000       0.16954300      10.30170000       0.01563630       0.02748140      -0.00406745
O        1.13792000       7.63754000       8.13903000      -0.02782910       0.03178860       0.00247134
H        2.66287000       8.71545000       8.22396000      -0.03393730      -0.00270706      -0.00198244
H       22.57972800       8.78370000       7.82628000       0.05971000      -0.04222540       0.00335403
O        6.34798000       6.06166000      14.34170000      -0.00817639       0.10811700       0.04681680
H        4.25392000       7.24062000      14.63570000       0.10141600      -0.05470480      -0.00897698
H        8.05057000       7.37271000      15.60970000      -0.08131930      -0.06031200      -0.05072480
O        8.61297000      14.36400000      11.69180000       0.08706680       0.02927450       0.02501110
H        8.97703000      12.50070000      11.71920000      -0.01800320       0.02521940       0.00501676
H       10.43450000      15.23600000      12.20930000      -0.07830790      -0.04139660      -0.01816010
O       14.32550000      11.67860000      16.75900000       0.02839950       0.01533150       0.02772530
H       17.48490000      12.71110000      18.37550000      -0.08364140      -0.02432010      -0.02458790
H       13.76600000      13.35090000      17.30660000      -0.00563315      -0.01750390      -0.01363670
O       13.31340000       8.37111000      10.90680000       0.03786220      -0.01875000       0.06153000
H       14.37540000       9.51207000      12.01540000      -0.02603980      -0.01147640      -0.02297560
H       13.54690000       6.79405000      12.02210000      -0.00869594       0.03927520      -0.03641780
O       13.11450000       8.53508000      20.21960000      -0.01265630      -0.01782470       0.00095719
H       13.42860000      10.05930000      19.04580000       0.00051832       0.00613115      -0.00100488
H       12.92090000       8.68578000      22.02630000       0.00193564       0.01065950      -0.00356947
O        7.64804000      20.68370000      15.87370000      -0.06639530      -0.03460320      -0.01689230
H        6.95892000      19.89540000      14.20820000       0.00521416       0.03184260       0.03096630
H        6.00334000      20.89980000      16.85390000       0.04597910      -0.00425181      -0.01636600
O       16.00680000       4.29933000       4.04240000       0.11630400       0.03708470      -0.02006420
H       17.90290000       6.08387000       4.74183000      -0.08312090      -0.08411380      -0.03586180
H       17.60330000       2.65886000       2.09658000      -0.06324620       0.04206540       0.02304500
O       10.62210000      14.08660000      22.71430000      -0.03698110      -0.03763210      -0.00955697
H       10.70280000      13.78560000       1.39158000      -0.01516020       0.00205267      -0.01951480
H        9.00746000      13.18830000      22.01130000       0.04618080       0.03193870       0.01350860
O        5.07946000      20.21340000      11.61540000      -0.00247941      -0.02309760       0.01158200
H        5.46760000      18.49870000      10.71340000      -0.00535210       0.03962010      -0.00839040
H        3.22704000      20.31990000      11.67890000       0.01637090      -0.00019960      -0.01044280
O       18.72620000       4.60154000       8.12271000       0.04964160      -0.04882200      -0.01962700
H       20.17310000       3.57184000       7.18431000      -0.05226180       0.03262050       0.03456040
H       19.06120000       4.45780000       9.89529000       0.00651822       0.00051792       0.00094318
O       19.87840000      13.99060000      14.67460000      -0.00090713      -0.05055300       0.02453680
H       19.83900000      13.02300000      16.70730000       0.00018628       0.04406160      -0.08985970
H       19.44410000      12.84540000      13.16510000      -0.00698888       0.02401710       0.05011360
