192
TotEnergy=-1103.40291000 cutoff=-1.00000000 nneightol=1.20000000 pbc="T T T" Lattice="24.19330000       0.00000000       0.00000000      -0.00000100      24.19330000       0.00000000      -0.00000100      -0.00000100      24.19330000" Properties=species:S:1:pos:R:3:force:R:3:Z:I:1
O               4.80667000     10.57860000      5.39136000      0.00054363      0.00254781     -0.00291215       8
H               4.43329000     12.34320000      5.44303000      0.00424826      0.00263158      0.00572787       1
H               5.26099000     10.03540000      7.09649000      0.00366676     -0.00178224     -0.00220399       1
O               0.70962200      0.80160700     17.37530000     -0.00544026      0.00177468     -0.00365139       8
H               1.46244000     23.97360000     16.07630000      0.00107052     -0.00024925      0.00153970       1
H              23.56650000     -0.21662300     18.05100000      0.00411119     -0.00393755      0.00327942       1
O               9.85191000     15.19270000      7.04478000      0.00773876     -0.00330874      0.00630319       8
H               9.30175000     15.27160000      5.32306000     -0.00199227     -0.00136289     -0.00630587       1
H              11.00720000     13.78580000      7.13377000     -0.00557789      0.00303163     -0.00225492       1
O              16.38830000     20.24810000      9.39447000     -0.02821160      0.08755610      0.03883950       8
H              16.59590000     18.78420000      8.58220000      0.01564140     -0.06978450     -0.04103920       1
H              17.65940000     20.43450000     10.63720000      0.01032580     -0.00811410      0.00474205       1
O               8.20180000     17.14400000     22.27790000      0.00537036     -0.00005966     -0.00403512       8
H               8.05667000     18.71150000     21.39270000     -0.00304881     -0.00026767     -0.00159377       1
H               8.78835000     15.94270000     20.98810000     -0.00802007      0.00006752     -0.00081329       1
O              20.19270000     11.73110000     18.58350000      0.00202468      0.00410115     -0.00014416       8
H              20.10690000     12.78060000     17.10560000      0.00198466     -0.00117528      0.00009655       1
H              18.81780000     12.31310000     19.61610000     -0.00237660     -0.00150972     -0.00376099       1
O               5.84830000      8.60912000     16.68020000      0.00208618     -0.00026601     -0.00409316       8
H               4.08777000      9.00204000     16.36080000      0.00231951     -0.00384671     -0.00322056       1
H               5.76975000      6.82389000     16.97310000      0.00492156      0.00200503      0.00141709       1
O               1.53304000     18.33070000     12.86290000     -0.00165109     -0.00320725     -0.00005655       8
H               1.63824000     17.03230000     14.16490000      0.00132483     -0.00114198      0.00040131       1
H               1.36303000     17.33680000     11.33810000      0.00234615     -0.00086425      0.00048235       1
O              13.47380000     19.46630000     23.43040000     -0.00999181      0.01756990      0.00611527       8
H              10.98420000     22.63250000     25.54090000      0.02298540     -0.01583320     -0.01214400       1
H              12.49180000     18.58350000     22.14570000     -0.00287849      0.00680063      0.01617090       1
O              22.95960000     21.56610000      7.24166000     -0.00430173     -0.00925588     -0.00084044       8
H               0.12183200     20.88640000      8.23268000      0.00275387      0.00569591     -0.00005632       1
H              -0.81003900     21.16950000      5.52583000      0.00242934      0.00098842      0.00101886       1
O              18.39350000     15.42130000     12.32380000     -0.01685290     -0.00904607      0.01403660       8
H              19.17560000     16.96170000     12.91380000      0.00175705      0.00314831      0.00135880       1
H              16.96680000     15.13620000     13.48720000      0.01982790      0.00400033     -0.01435120       1
O               9.10773000     24.19570000      3.85611000      0.01571740     -0.00147039     -0.01243780       8
H              10.16370000     22.99040000      4.74766000     -0.00363052     -0.00498313     -0.00419569       1
H               8.36575000     -0.81214400      2.40436000     -0.01085810     -0.00399178      0.00308516       1
O               0.63396300     15.60060000      3.22149000     -0.00341454     -0.00005747      0.00025117       8
H               0.74702700     14.22600000      2.02561000     -0.00232591      0.00543543     -0.00540974       1
H               2.15812000     15.53230000      4.19904000     -0.00187443      0.00143556     -0.00279209       1
O              23.23430000     11.24960000     12.95640000     -0.00296732      0.00558593     -0.00738412       8
H              23.96110000      9.92541000     11.94820000     -0.00709789     -0.00019023      0.00375722       1
H              21.85600000     11.95950000     12.03390000     -0.00471839     -0.00029315     -0.00511314       1
O               4.12113000     21.37330000     21.06140000      0.00043945      0.00397097      0.00112822       8
H               2.86947000     20.39390000     20.14210000      0.00117341      0.00069578      0.00393227       1
H               4.27393000     22.92930000     20.13290000      0.00383103     -0.00213318     -0.00527977       1
O               6.39159000      8.28578000      9.60552000     -0.00186964     -0.00882682     -0.00766393       8
H               8.03838000      7.57860000      9.25175000     -0.00108136      0.00366039      0.00201262       1
H               6.50721000      9.50428000     10.93090000      0.00581668      0.00382889      0.00981695       1
O              23.35740000      4.78311000     23.80790000     -0.00036877     -0.00192403     -0.00037002       8
H              23.86840000      4.48864000      1.31827000     -0.00121771      0.00045612     -0.00116266       1
H              24.28420000      3.62155000     22.78220000      0.00022028     -0.00078885     -0.00037693       1
O              15.70240000      1.92045000     21.18930000      0.00164437      0.00293483     -0.00244396       8
H              15.09850000      0.23172000     21.53790000     -0.00359299      0.00550726      0.00087893       1
H              16.79790000      1.71864000     19.76890000      0.00058711     -0.00269781     -0.00155782       1
O              21.69980000      4.03403000      9.79561000      0.00216934     -0.00138530      0.00162117       8
H              20.68120000      4.35250000     11.25800000     -0.00145381     -0.00018605     -0.00134123       1
H              20.58540000      3.72592000      8.39710000      0.00452657      0.00576947     -0.00138499       1
O              11.98280000      5.62952000      1.88449000      0.00196510     -0.00357659      0.00189240       8
H              13.55010000      5.85972000      2.80226000     -0.00349252      0.00082889     -0.00079652       1
H              12.32570000      6.03932000      0.15046000      0.00146601     -0.00280527      0.00068258       1
O               5.61396000     12.23350000     20.37910000     -0.01264910     -0.00540822      0.00689474       8
H               5.82468000     10.85020000     21.53200000      0.00341094      0.00025474      0.00360913       1
H               6.13917000     11.48140000     18.79230000      0.00242631      0.00601507      0.00706444       1
O              23.94660000     18.81550000     19.59930000     -0.00185460      0.00170973      0.00621564       8
H              -0.00410500     17.07210000     19.17230000     -0.00202527     -0.00128175     -0.00058576       1
H              23.38530000     18.82980000     21.36280000      0.00066237      0.00169402     -0.00792751       1
O              20.95670000     19.96300000     13.82510000      0.00069292      0.00328396      0.00472626       8
H              20.64640000     19.89470000     15.61660000      0.00023614     -0.00094244     -0.00220799       1
H              22.77010000     19.59240000     13.59820000     -0.00644452     -0.00147513     -0.00189820       1
O              19.38450000      8.17730000     23.99200000      0.00293244      0.00101056      0.00568100       8
H              19.77350000      9.94079000     -0.06080900     -0.00188768     -0.00139681      0.00289523       1
H              20.95430000      7.32673000     23.51540000     -0.01070960      0.00148445     -0.00102392       1
O              13.15290000     12.31530000     12.10590000     -0.00062770      0.00222111     -0.00055912       8
H              12.95060000     11.23840000     10.64890000      0.00616776     -0.00018236      0.00086411       1
H              13.71940000     13.92230000     11.48950000     -0.00350633      0.00170737      0.00064564       1
O               6.47595000     17.22420000      3.08506000     -0.00749605      0.00328279     -0.00805669       8
H               5.58763000     17.90330000      1.60504000      0.01386580     -0.01100060      0.01293600       1
H               5.54256000     17.63460000      4.56949000     -0.00442610      0.00770628      0.00184872       1
O               9.31812000     14.52310000     17.53000000      0.00695426     -0.00928120     -0.00875200       8
H               9.37145000     16.06510000     16.57010000      0.00574138     -0.00722199     -0.00088373       1
H              10.52160000     11.09580000     16.62480000      0.00130395      0.01944400      0.00888608       1
O               6.40303000      3.04509000     23.17120000      0.00023760     -0.00139246     -0.00021217       8
H               4.80892000      2.52178000     23.83650000     -0.00026669      0.00433925     -0.00084351       1
H               7.31344000      3.55914000     24.65550000      0.00051857      0.00291313     -0.00219370       1
O               3.60817000      3.16211000      3.63224000      0.00025132     -0.00267546      0.00292961       8
H               3.56004000      2.59346000      5.37878000      0.00101223      0.00635739      0.00039768       1
H               2.23721000      4.34878000      3.63387000      0.00374483      0.00385612     -0.00093260       1
O              13.51440000     23.22930000     14.37030000     -0.00314683      0.00243039     -0.00511492       8
H              14.55270000     24.60960000     13.82630000      0.00220912      0.00081643      0.00275895       1
H              13.43470000     22.14910000     12.91100000      0.00257452      0.00054533     -0.00266265       1
O               1.18522000      7.52412000     15.05940000      0.00041827     -0.00427197     -0.00194146       8
H              23.84370000      8.07555000     15.85840000      0.00331281     -0.00155364      0.00063575       1
H               1.01985000      5.75401000     14.76980000     -0.00130804     -0.00496131      0.00300849       1
O               4.72033000     22.38710000      7.71621000     -0.00198089     -0.00203810     -0.00306756       8
H               4.76064000     22.66730000      5.93275000      0.00063392      0.00141245     -0.00162134       1
H               4.88081000     24.03890000      8.47297000     -0.00442096     -0.00310416     -0.00036695       1
O              10.25600000     24.23350000     20.64800000      0.00012116      0.00071268      0.01108600       8
H               8.74986000     23.34500000     20.15600000      0.00651916     -0.00247508      0.00126964       1
H               9.65151000      1.72969000     20.35080000      0.00729979     -0.00103884      0.00486322       1
O               0.37562700      9.04643000      3.57821000      0.00251157     -0.00375343     -0.00055059       8
H              -0.10152300     10.44920000      2.53055000      0.00065051     -0.00796849     -0.00463037       1
H               2.09384000      9.43458000      4.14439000     -0.00467277     -0.00157165     -0.00000308       1
O              22.07040000     19.96070000      0.52047800      0.00002016     -0.00298025      0.00076926       8
H              23.00680000     18.59550000      1.27639000      0.00049390     -0.00136136      0.00268829       1
H              22.98110000     21.47080000      1.03382000      0.00288357     -0.00173126     -0.00617791       1
O              13.38100000     10.18920000      6.47840000      0.00941543      0.01479760      0.00400062       8
H              14.77750000      9.20408000      7.28235000     -0.01828140      0.03297360     -0.02060400       1
H              13.90360000     11.75610000      5.54614000      0.01130680     -0.04233090      0.01683170       1
O              19.04080000     16.43990000      6.56512000      0.00224689     -0.00482507     -0.00059470       8
H              20.62890000     16.76380000      5.76695000      0.00395437      0.00664384      0.00351740       1
H              19.39390000     15.92440000      8.27270000     -0.00001068     -0.00278845      0.00019903       1
O              16.09520000      7.63346000     10.92220000     -0.00027988     -0.01094720     -0.01263730       8
H              15.89880000      5.89038000     10.39480000      0.00300930      0.00166686      0.00202003       1
H              15.71630000      7.53750000     12.66610000     -0.00349460      0.00411230      0.01311030       1
O               6.72925000     14.09790000     11.90360000      0.00111581     -0.00476573      0.00440348       8
H               7.44660000     14.24510000     13.58740000      0.00575423     -0.00188980      0.00093857       1
H               8.15938000     14.25910000     10.78820000     -0.00438351      0.00428986     -0.00035463       1
O              17.92140000     19.96030000     19.69080000      0.00116350     -0.00345568      0.00047432       8
H              17.16640000     19.64780000     21.33050000     -0.00620193      0.00544588     -0.00163601       1
H              19.56350000     20.61920000     20.06390000      0.00033867     -0.00315247      0.00351463       1
O              12.90390000     19.98000000      4.10646000     -0.01455380      0.00913086     -0.00825022       8
H              11.67980000     19.24460000      5.24136000      0.00550986     -0.00814202     -0.00846587       1
H              12.66110000     19.37660000      2.28450000      0.00793212      0.00061244      0.01332750       1
O              15.43710000     14.66070000     18.37210000     -0.00024102      0.00062224     -0.01018720       8
H              16.20170000     16.30720000     18.51360000     -0.00322601      0.00029184      0.00197259       1
H              13.64170000     14.93030000     18.04260000     -0.00192514     -0.00029359      0.00590032       1
O               0.28831900     12.48630000     22.92440000      0.00128386      0.00168388     -0.00254979       8
H               1.98488000     12.49450000     22.24060000      0.00048190     -0.00152307     -0.00277486       1
H              23.45710000     11.73910000     21.61190000      0.00007027      0.00150087      0.00188798       1
O              12.14760000     10.17880000     16.31900000     -0.00865273     -0.00885436     -0.00321799       8
H              12.87700000      9.30863000     17.78170000      0.00373023      0.00424786      0.00502189       1
H              13.21000000     11.29910000     15.26210000     -0.00264920     -0.00292023     -0.00170615       1
O               8.69527000      9.53164000      1.51324000      0.00048529     -0.00204304      0.00222940       8
H               9.48558000      8.01210000      2.18558000      0.00195871      0.00722984     -0.00429009       1
H               7.71313000     10.17790000      2.89745000     -0.00240056      0.00013359     -0.00198142       1
O              21.06940000      6.61448000     18.84010000      0.00506042      0.00248070     -0.00180363       8
H              20.41280000      7.92906000     17.75210000     -0.00258573     -0.00653134      0.00711869       1
H              21.04720000      5.02050000     18.00500000     -0.00341609      0.00086963     -0.00649379       1
O              14.42900000      7.37541000     20.62920000     -0.00311529     -0.00668969      0.00306597       8
H              15.25530000      8.11295000     22.07320000      0.00641158      0.00006179     -0.00521417       1
H              14.92250000      5.59636000     20.72360000     -0.00361015      0.00523435     -0.00309048       1
O              20.34830000      9.13095000      6.67115000     -0.00552111     -0.00417996     -0.00307556       8
H              21.60260000      8.23823000      5.67085000      0.00115904      0.00856250      0.00447545       1
H              19.55710000     10.22660000      5.45642000      0.00011895      0.00170220      0.00046769       1
O              10.14590000      4.14475000      8.19631000      0.00058403     -0.00059845      0.00270949       8
H              11.64250000      3.89091000      9.18973000     -0.00199842     -0.00062910     -0.00050921       1
H              10.46790000      3.34727000      6.59430000     -0.00374263      0.00383634     -0.00015074       1
O              13.07830000     13.04450000     23.19670000      0.00192811      0.00027371      0.00535579       8
H              11.98870000     11.68040000     23.71120000     -0.00173378      0.00121380     -0.00030398       1
H              14.34290000     12.37340000     22.09060000     -0.00484801      0.00150906     -0.00147097       1
O              21.73980000      2.09194000      5.02678000      0.00224510      0.00023214     -0.00278334       8
H              21.36510000      1.68672000      3.30195000     -0.00915230      0.00060251     -0.00161271       1
H              21.25810000      0.57871400      5.91847000      0.00791706      0.00188040     -0.00051539       1
O               9.83371000      3.51261000     14.03630000     -0.01375380      0.00341937     -0.02241160       8
H               9.09205000      3.61341000     12.33140000      0.00962503     -0.00344690      0.02290610       1
H              10.54100000      1.84079000     14.16410000      0.00316994     -0.00119085      0.00008269       1
O               7.17415000     20.46540000     11.77020000      0.00072753     -0.00413613      0.00500313       8
H               6.66373000     20.31360000     10.02280000      0.00233189      0.00623477      0.00365149       1
H               5.87292000     19.53440000     12.63620000      0.00062438     -0.00081313     -0.00041876       1
O              15.34910000      2.29762000      9.42644000      0.02485330     -0.00390457     -0.00365361       8
H              15.05170000      2.82840000      7.71514000      0.00308750     -0.00140122     -0.00623728       1
H              16.98860000      1.42735000      9.27565000     -0.02364610      0.00702539      0.00307218       1
O               3.12987000      3.59398000      8.71714000      0.00307253      0.00061389     -0.00018986       8
H               4.38224000      4.90459000      8.89032000     -0.00316545      0.00294766      0.00278954       1
H               1.51263000      4.43415000      8.59864000     -0.00082508     -0.00617242      0.00592698       1
O              19.31440000      1.50083000     14.31650000     -0.00105200     -0.00388657     -0.00169286       8
H              19.21550000      0.10980900     13.14260000      0.00113499      0.00176492      0.00436937       1
H              20.76350000     25.22440000     15.29720000      0.00186352      0.00292134     -0.00118893       1
O              16.77660000      5.48845000      4.71373000      0.00099507      0.00293881      0.00245346       8
H              17.72330000      5.96251000      3.22101000     -0.00109518     -0.00403745     -0.00019338       1
H              17.60100000      6.50112000      6.00003000      0.00117998     -0.00072867     -0.00426772       1
O              11.99150000     18.04370000     13.88020000     -0.00010490      0.00414760     -0.00417866       8
H              10.67100000     19.08750000     13.15820000      0.00084438     -0.00513681      0.00093402       1
H              12.77050000     19.04880000     15.17440000     -0.00259037     -0.00015800     -0.00039681       1
O              17.24960000     13.35540000      2.66543000      0.00119424      0.00063866     -0.00562936       8
H              18.31430000     14.56010000      3.50612000     -0.00653852     -0.00063319      0.00547194       1
H              16.00120000     14.36380000      1.79095000     -0.00049727     -0.00681625     -0.00151905       1
O               1.27806000     14.56370000      8.45026000      0.00504570     -0.00814754      0.00238021       8
H              24.03480000     14.43450000      7.35776000     -0.00167124     -0.00292885     -0.00114108       1
H               1.52691000     12.86000000      9.09191000     -0.00265593      0.01458470      0.00029368       1
O               6.84748000     24.19190000     17.18720000     -0.01966810     -0.00447553     -0.00807178       8
H               7.49204000     23.14220000     15.85610000     -0.00047181      0.00340211     -0.00219831       1
H               6.52273000      1.62855000     16.46690000      0.00646968     -0.00148240     -0.00304031       1
O              17.83570000     23.43190000      1.94462000      0.00835335     -0.00726844      0.00653470       8
H              18.31810000     21.68060000      2.14788000     -0.00406264      0.00661767     -0.00330185       1
H              16.44250000     23.64480000      3.07939000     -0.00170753     -0.00165873     -0.00172911       1
O               1.81082000     23.33760000      0.98155000     -0.00040134      0.00094442      0.00435671       8
H               2.77018000     22.65420000     23.75310000      0.00154078     -0.00124364      0.00061100       1
H               2.77416000      0.44495200      1.86130000     -0.00739557     -0.00279649     -0.00086093       1
O               2.23916000     14.02610000     15.99150000      0.00598716      0.01067800      0.00251372       8
H               3.05123000     14.24140000     17.60320000      0.00605687     -0.00330850      0.00149509       1
H               3.63357000     13.81920000     14.83330000     -0.00448035     -0.00374641      0.00236096       1
