192
Lattice="23.34813 0.0 0.0 0.0 23.34813 0.0 0.0 0.0 23.34813" Properties=species:S:1:pos:R:3:force:R:3 TotEnergy=-1103.81636 cutoff=-1.0 nneightol=1.2 pbc="T T T"
O        2.03963000      11.15090000       5.00030000      -0.00057534       0.00581504      -0.00322383
H        2.38571000      12.82620000       4.27288000       0.01000200      -0.00118145       0.00044488
H        0.23697100      11.00310000       5.12654000       0.00244795      -0.00075931      -0.00220061
O       19.25950000       2.63183000      13.60540000      -0.00442401      -0.00128590       0.00439139
H       19.84780000       1.78495000      12.09890000       0.00311317       0.00085211       0.00455608
H       19.94460000       4.33226000      13.76060000       0.00429084      -0.00158526      -0.00740326
O        9.51527000      17.87270000       8.04975000       0.00108498       0.00576623      -0.00289212
H        9.02263000      18.32320000       9.74079000       0.00677295      -0.00659280      -0.00001897
H       10.81970000      16.58480000       8.06171000      -0.00916903       0.00162284       0.00450112
O       16.37450000      19.54350000      10.71570000       0.00949021      -0.01105770      -0.00174035
H       16.84550000      17.81320000      10.39180000      -0.01047080      -0.00188766      -0.00159488
H       18.05240000      20.27400000      10.81230000       0.00215434       0.00983178       0.00318172
O        8.73049000      13.52190000      23.24525200      -0.00416631       0.02880170       0.00236869
H        9.05819000      11.94360000      21.97490000      -0.03029820       0.03308580       0.00815242
H        8.90410000      13.57740000       1.71825000       0.00788386      -0.02419280       0.01526240
O       21.27650000       8.82496000      19.38040000       0.00022048      -0.00385876      -0.00196890
H       23.03600000       8.58579000      19.79820000      -0.00000927       0.00361309      -0.00000710
H       20.93070000      10.62340000      19.39310000       0.00519827      -0.00122470      -0.00336299
O        5.92512000       4.18344000      17.15540000      -0.01830470       0.00117128       0.00733724
H        4.19248000       3.51732000      16.96900000       0.00625898       0.00145705       0.00169749
H        6.72260000       3.67695000      15.64270000       0.01703070       0.00089548      -0.01701200
O        3.71504000      14.67050000      15.62960000      -0.00174148       0.00116549      -0.00087512
H        2.53998000      14.38770000      14.27080000       0.00279649      -0.00330338       0.00088420
H        3.05310000      13.86000000      17.12880000      -0.00060691       0.00107888      -0.00482094
O        9.12151000      18.86370000      21.80390000       0.09749080      -0.06148130       0.05709400
H        7.76009000      18.46740000      20.84430000      -0.06989190      -0.00044032      -0.04527720
H        9.91043000      17.05050000      22.07480000      -0.02441470       0.06711460      -0.00665141
O        0.64248600      19.69840000       2.72539000       0.00654796      -0.00814733       0.00343833
H        1.53568000      20.66800000       3.99155000      -0.00403776       0.00419283      -0.00069728
H        1.71639000      18.21800000       2.62630000       0.00375581      -0.00277862      -0.00273942
O       21.75830000      16.13930000      11.48030000      -0.00603110      -0.00188018      -0.00008310
H       21.55860000      17.26100000      12.91980000       0.00086901      -0.00178304      -0.00108746
H       20.25510000      15.11780000      11.44820000       0.00211750      -0.00099606      -0.00217292
O       11.08260000      21.47290000       3.09307000      -0.00432604      -0.00777575      -0.00824624
H       11.73700000      20.33060000       4.34365000      -0.00699293       0.00237682      -0.00120302
H       10.26760000      20.44670000       1.79201000       0.00233976       0.01023450       0.01159260
O       19.25030000      17.71380000      22.82400000      -0.00292957       0.00764420      -0.00229852
H       20.07920000      19.07980000       0.35217000       0.00446815      -0.00081503       0.00275987
H       18.28060000      18.60750000      21.57990000      -0.00330505      -0.00200734      -0.00022822
O       22.26180000       5.92698000       5.61265000      -0.00408665      -0.00177649      -0.00259836
H        0.53729200       6.32067000       6.35587000       0.00274599       0.00165548       0.00397178
H       21.07370000       7.25853000       6.03342000       0.00257891       0.00023918       0.00110303
O        4.58361000      18.53970000      19.53290000      -0.00554438      -0.00047798      -0.00559193
H        3.95225000      16.84800000      19.86550000       0.00084874       0.00332951      -0.00201836
H        4.37634000      18.84580000      17.73050000       0.00170811      -0.00524657       0.00714633
O        7.94976000       8.94102000       8.27576000       0.00235158      -0.00060552       0.00436388
H        9.36454000       7.79933000       8.24046000       0.00354718       0.00025710      -0.00628604
H        8.00968000       9.51559000      10.00420000      -0.00357754       0.00056794       0.00212840
O       19.60370000       0.73552800      22.54510000      -0.00420712       0.00284757       0.00898736
H       18.14070000       1.03393000       0.22466700      -0.00753879      -0.00944220      -0.00334595
H       20.75620000       1.92792000      23.30579700       0.01055640       0.00437810      -0.00704326
O       13.74570000       1.39696000      20.26170000      -0.00050487      -0.00642492      -0.00642844
H       14.68560000       0.92432700      18.78260000       0.00725281       0.00853727       0.00023982
H       11.98890000       1.04627000      19.75570000      -0.00342066       0.00579567       0.00590541
O       21.14470000       0.71075400       6.30259000      -0.01241240      -0.00502648      -0.00969224
H       20.92490000       2.35959000       7.01023000       0.00347767       0.00841896      -0.00302401
H       19.59400000       0.43836100       5.28309000       0.01014000      -0.00374223       0.00509693
O       11.51980000       9.81476000       2.00733000       0.02971800       0.01002150       0.03332960
H       12.94560000       9.88205000       3.25596000      -0.03359150       0.00077324      -0.02174080
H       12.12200000       8.52066000       0.89131600       0.00381176      -0.01396540      -0.01307000
O        3.22611000       7.34456000      20.11560000      -0.00467405       0.00539334       0.00493617
H        4.18043000       7.31085000      21.65900000       0.00299133       0.00117772       0.00295144
H        4.34753000       6.83554000      18.76090000      -0.00123231      -0.00328191       0.00312083
O        7.95754000      10.85560000      19.52060000       0.00918427      -0.00481347       0.00946643
H        8.46666000      11.13060000      17.77350000       0.00269257      -0.00105085       0.00808508
H        8.09493000       9.08904000      19.90390000      -0.00079654      -0.00314984      -0.01034280
O       21.70540000      18.49900000      16.12330000      -0.00012477      -0.00376600       0.00276422
H       20.77410000      19.95030000      16.81000000      -0.00130697       0.00145716      -0.00063170
H        0.10997000      18.81950000      16.46290000       0.00148101      -0.00176668      -0.00081955
O       19.61540000       9.44308000       1.34997000      -0.00671362      -0.00099367      -0.00342703
H       19.94520000       8.29069000      23.31740500       0.00462769      -0.00169391       0.00170741
H       17.85450000       9.81937000       1.15641000      -0.00094010       0.00492865      -0.00244566
O       16.67740000      12.80760000      10.76290000      -0.00243964      -0.00267742       0.00779377
H       15.01000000      13.06540000      10.03520000       0.01014670       0.00294907       0.00294145
H       16.39960000      12.48840000      12.58170000      -0.00530726       0.00290012      -0.01520950
O        5.21076000      15.40250000       3.72310000       0.01185400      -0.00585966      -0.00784027
H        7.28691000      14.79780000      23.29754400      -0.00543398      -0.02605570      -0.01205170
H        6.31301000      15.87570000       5.12065000      -0.01123180      -0.00144843      -0.01128160
O        9.78911000      14.28050000      14.60510000      -0.00308117      -0.00145905       0.00046827
H        8.31696000      15.29040000      14.20590000       0.00503655       0.00028145       0.00206310
H       11.22810000      15.35590000      14.35150000      -0.00130469      -0.00329002       0.00204473
O        5.66591000       2.18827000       1.01898000      -0.00123090       0.01894210       0.00781164
H        4.26325000       2.44765000      23.25830000      -0.00322625      -0.00699913      -0.01050550
H        5.72333000       3.79446000       1.92214000       0.00602123      -0.00646455      -0.00457873
O       22.35180000       4.92331000       0.52010200       0.00200784      -0.00350864       0.00047403
H       22.46850000       5.47534000       2.27711000       0.00143007      -0.00096116       0.00253264
H        0.49452200       5.46313000      22.99990000      -0.00020458       0.00083193       0.00056956
O       13.23400000      20.82680000      14.78530000      -0.00066748       0.00188542       0.00557070
H       13.88920000      20.32490000      16.41520000      -0.00119542      -0.00440048      -0.00291098
H       14.42660000      20.30000000      13.49640000       0.00338761       0.00105358      -0.00188347
O        1.26586000       2.39718000      16.60640000      -0.00919305       0.00230379      -0.00141213
H        0.53566900       2.39834000      18.27200000       0.00271373      -0.00660043       0.00328165
H        0.06997000       3.28985000      15.57220000       0.00027161       0.00096804      -0.00188499
O        3.30142000       0.50422000       5.33019000       0.00156805       0.00300574      -0.00467782
H        3.96541000       0.91656100       3.65977000       0.00486177      -0.00383052       0.00737286
H        1.63594000       1.21949000       5.35647000      -0.00655479      -0.00169272       0.00250109
O        8.78834000       0.61353200      19.74460000      -0.00019962       0.00068837       0.00393375
H        7.77132000       1.59554000      18.57920000       0.00374761       0.00232939       0.00594147
H        8.30893000       1.23238000      21.39860000      -0.00338733      -0.00639510      -0.00359094
O       22.40010000      13.86140000       1.00851000      -0.00534185      -0.00396818      -0.00377799
H       21.52890000      12.23340000       1.08468000       0.00138318       0.00319587      -0.00039799
H       21.25010000      14.94050000       0.06963800       0.00423672       0.00083384       0.00257793
O       18.99990000      22.57770000      17.72230000       0.00273886       0.01149050       0.00030927
H       19.51780000       0.13348000      19.24930000      -0.00465234      -0.01069420       0.00683223
H       19.23610000       0.50822500      16.42020000      -0.00543831      -0.00581610      -0.00698462
O       12.82070000      14.02640000       6.83088000      -0.00012206       0.00416288       0.00775817
H       12.50580000      12.24330000       6.90048000       0.00013546       0.00156138      -0.00731833
H       14.15870000      14.42340000       5.63233000       0.00230289      -0.01096890      -0.00006707
O       19.97100000      17.37710000       6.13891000       0.00320927       0.00076735       0.00334273
H       21.26450000      17.46480000       4.86907000       0.00342270       0.00632076      -0.00504783
H       20.85800000      17.92000000       7.63107000      -0.00133491      -0.00438609       0.00325063
O       12.58630000       8.10907000      17.00390000      -0.00441770      -0.00824269      -0.01033010
H       13.56320000       7.29250000      15.69490000       0.00649685       0.00068549       0.00277393
H       10.91600000       7.64756000      16.40380000       0.00101971       0.00594401       0.00422154
O        8.36692000       9.41207000      13.84330000       0.00187840       0.00320620      -0.00066803
H        6.63521000       9.93310000      14.07920000      -0.00405201      -0.00266495      -0.00358964
H        9.31464000      10.98570000      13.70470000      -0.00323324       0.00150031       0.00361962
O       13.78010000      19.21130000      20.01890000      -0.00064472       0.00726818      -0.00585097
H       12.07270000      19.64700000      20.57630000      -0.00241557      -0.00878413      -0.00254170
H       14.51540000      20.86710000      20.09250000       0.01023430       0.00183132       0.00775269
O       14.04940000       0.43122400       8.02392000       0.00226039       0.00649352      -0.00551170
H       14.36650000      22.03310000       8.42042000      -0.00549500       0.00382149       0.00820583
H       12.27800000       0.83064800       8.39470000       0.00593392      -0.00860844       0.00180456
O       20.05500000      13.87380000      18.24350000      -0.00372462       0.00965245      -0.00664911
H       20.91490000      15.24310000      17.33950000      -0.00104279      -0.00197877       0.00874775
H       18.93420000      14.73390000      19.39440000       0.00579772      -0.00308700       0.00125006
O        2.99214000      13.61140000      20.86300000      -0.00967825      -0.00644970       0.01416120
H        1.67776000      13.56900000      22.18380000      -0.00186560       0.01369460      -0.00497340
H        3.75223000      12.01360000      21.20180000       0.01173350      -0.00618952      -0.00851411
O       15.41770000      13.34650000      15.69390000       0.00087495      -0.00015833       0.00106250
H       15.02840000      12.19720000      17.06070000       0.00148293       0.00301960      -0.00631519
H       17.14450000      13.87830000      16.00100000      -0.00445502      -0.00448718       0.00805732
O        5.38202000       7.89185000       2.27921000      -0.00103145      -0.00256806      -0.00395396
H        7.10950000       8.01626000       2.80763000       0.00293987       0.00343897       0.00136638
H        4.43749000       9.02576000       3.39056000      -0.00183409      -0.00292073      -0.00339470
O       20.96440000       7.31506000      14.22480000       0.00866178       0.01529420      -0.00740523
H       21.79960000       8.54032000      13.16990000       0.00084968      -0.00840130      -0.01487270
H       21.52010000       8.01354000      15.80300000      -0.00954671      -0.00617191       0.02477150
O       13.83510000       6.74835000      21.92960000       0.00015343      -0.00852582      -0.00025206
H       13.98880000       4.92179000      22.02180000       0.00109056       0.00683289      -0.00940307
H       13.54250000       7.06549000      20.13360000      -0.00079107       0.00027975       0.00379355
O       18.49280000       9.49479000       6.73239000       0.00005169       0.00060327       0.00445565
H       18.22460000      10.37340000       5.17177000       0.00087780       0.00192998       0.00010194
H       18.37480000      10.75810000       8.05622000      -0.00371912      -0.00291256      -0.00035238
O        9.35020000       0.63276000       9.74329000      -0.00262947      -0.00168053       0.00254321
H        9.32367000       1.77124000      11.15760000      -0.00051578       0.00883032       0.00311304
H        9.74671000      22.43830000      10.62130000      -0.00592865      -0.00578820      -0.00635331
O       14.83200000      13.61300000      21.86770000       0.00149747      -0.00071897      -0.00501280
H       13.52460000      12.45440000      22.38990000       0.00295894       0.00616714      -0.00053778
H       14.08180000      15.06440000      21.06840000      -0.00180266      -0.00086858       0.00037388
O       16.67820000      22.56380000       4.10206000       0.00594486       0.00559525      -0.00399412
H       15.42930000       0.25317000       5.01651000       0.00609641      -0.01470410       0.00132345
H       16.84620000      21.01310000       5.05450000      -0.00071692       0.00522367      -0.00548061
O       10.43480000       2.34959000      14.63140000      -0.00371559      -0.00122695      -0.00045874
H       12.10080000       3.05189000      14.24290000      -0.00694731      -0.00083765      -0.00154905
H       10.72690000       0.56316700      14.56820000       0.00372705      -0.00195461       0.00631510
O        3.35620000      20.07060000       9.32442000       0.00757785      -0.00237742       0.00319231
H        4.35450000      20.79570000       7.97126000      -0.00743481       0.00479439       0.00367287
H        4.36045000      18.66030000       9.86796000      -0.00239219      -0.00617948      -0.00386059
O       14.25900000       4.59061000      12.60770000       0.03755430       0.02151510       0.00708326
H       13.63440000       5.49252000      11.17000000      -0.00205679      -0.00118714      -0.00768572
H       16.12410000       4.88126000      12.66960000      -0.03212310      -0.01475390      -0.00175058
O        3.61506000       6.07570000       8.08566000       0.01050660       0.02916150       0.00279646
H        4.38715000       4.51649000       7.72078000       0.00474390      -0.02474750      -0.00564419
H        5.07542000       7.27795000       7.94592000      -0.01773700      -0.01211190       0.00107659
O       21.24930000      21.71680000      10.65750000       0.00199441       0.00202626      -0.00383074
H       21.34800000      22.11760000       8.84851000      -0.00524291       0.00845114       0.00053829
H       22.98020000      21.32650000      11.01400000       0.00000826      -0.00560479       0.00269399
O       12.88330000       6.68646000       7.15879000       0.00319602       0.00475043       0.00312768
H       12.34910000       5.56134000       5.79735000       0.00564627      -0.00371720       0.00000737
H       14.70260000       6.73796000       7.15223000      -0.00285215      -0.00022797      -0.00365888
O        8.62424000      19.38930000      13.47990000      -0.00101446       0.00242606       0.00117367
H        7.35310000      20.21450000      14.47810000      -0.00331699      -0.00042898      -0.00170189
H       10.22610000      19.69160000      14.35360000      -0.00035286       0.00099862      -0.00507426
O       16.75360000      14.07290000       3.29096000      -0.00037848      -0.00200432      -0.00002867
H       18.46960000      14.57940000       3.59705000      -0.00273213       0.00411404       0.00778524
H       16.38730000      14.80470000       1.65693000      -0.00166379      -0.00608041      -0.00050138
O        3.12975000      13.80500000       9.56754000      -0.00223662       0.00166126      -0.00680481
H        1.66558000      14.83040000       9.18394000       0.00388177      -0.00339649       0.00888423
H        3.45632000      13.02510000       7.94219000       0.00360475       0.00348930       0.00194939
O        3.32187000      21.06880000      14.88360000      -0.00627745      -0.00103978      -0.00085746
H        3.09069000      20.77990000      13.08560000       0.00133935       0.00464543       0.00529159
H        1.97518000      22.17340000      15.48090000       0.01329000       0.00261848      -0.00711305
O       11.56120000       3.44204000       3.18332000      -0.01182940       0.00116971       0.02078440
H       12.62970000       3.46878000       1.76798000       0.00920635      -0.00340901      -0.01393930
H       11.23710000       1.65821000       3.52714000       0.00057728       0.00095180      -0.00487055
O        1.78346000      22.84760000      21.15430000      -0.00017864      -0.00579448       0.00618653
H        2.44797000      21.18320000      20.73630000       0.00581079       0.00665185      -0.00404536
H        1.47030000      22.61670000      22.93320000      -0.00665157      -0.00074673      -0.00136022
O        2.88280000       9.12593000      12.53400000       0.00632674      -0.00099068      -0.00808792
H        3.19582000       7.38160000      12.11320000      -0.00252136       0.00300021      -0.00181586
H        3.30752000      10.01140000      10.97220000      -0.00959839       0.00109785       0.01427340
