192
TotEnergy=-1103.24784000 cutoff=-1.00000000 nneightol=1.20000000 pbc="T T T" Lattice="21.88702000       0.00000000       0.00000000      -0.00000100      21.88702000       0.00000000      -0.00000100      -0.00000100      21.88702000" Properties=species:S:1:pos:R:3:force:R:3:Z:I:1
O               0.75512200      8.58489000     16.61940000     -0.00539918      0.00690066     -0.00832422       8
H               1.78831000      8.45779000     15.11490000      0.00509597     -0.01086700      0.01836460       1
H               0.83963800      7.04340000     17.65910000      0.00422084      0.01264150     -0.00920910       1
O              15.15850000      0.29015100     16.43270000      0.01360510      0.01331680     -0.06668500       8
H              14.75850000     21.01680000     17.61270000     -0.01432740     -0.03936260      0.07586370       1
H              14.95160000     20.96180000     15.02000000      0.00682902      0.02453240     -0.00173972       1
O              12.42150000     15.82090000      9.71745000     -0.04810370      0.01846850      0.00601837       8
H              10.86000000     16.81140000      9.14925000      0.03316250     -0.02092640      0.01364290       1
H              11.84760000     14.75370000     11.18860000      0.00534623     -0.00297174     -0.02593370       1
O              21.78060000     20.42740000      1.37228000     -0.02787680     -0.03671820      0.04909730       8
H              20.76090000     18.86950000      2.23095000      0.03198220      0.05315030     -0.03044390       1
H              21.59570000     20.10120000     21.49550000     -0.00059326     -0.00820612     -0.00456696       1
O               6.19223000     11.64590000     20.40560000      0.00201987      0.07509210      0.00174384       8
H               7.74970000     12.03570000     19.18560000     -0.04620510     -0.00201575      0.04309160       1
H               5.53619000     13.52140000     21.19340000      0.04206180     -0.06527510     -0.03519840       1
O              13.66010000      8.96229000      9.45799000     -0.02969590      0.03143340      0.01787230       8
H              14.89800000     10.28170000      9.38086000      0.00802281      0.00884523     -0.00097649       1
H              14.55240000      7.48054000      9.15749000      0.02085250     -0.03686180     -0.01698120       1
O              21.58780000      7.71932000     10.48550000     -0.01410160     -0.00911250     -0.02773600       8
H              22.02310000      8.84911000      9.13628000      0.00161826      0.00088611     -0.00036378       1
H               0.12437300      8.47300000     12.00100000      0.00703885      0.02388220      0.03170260       1
O               4.87444000     19.49740000     12.16080000     -0.00612242     -0.00516312      0.00358476       8
H               3.19081000     19.56250000     11.36420000     -0.00020788     -0.01963280      0.00107284       1
H               5.03168000     21.27120000     12.55120000      0.01210250      0.00491765     -0.00238540       1
O              10.20420000     13.43500000     17.93790000     -0.01044040      0.02728780      0.04851240       8
H              10.51400000     12.44470000     16.55660000      0.01167190     -0.02725390     -0.05639960       1
H              10.05410000     15.17790000     17.38550000     -0.00287037      0.00833558     -0.00183151       1
O              16.68280000     17.33960000      7.85837000     -0.07245210      0.01105060      0.10746400       8
H              16.95820000     16.81070000      6.30066000      0.02639310     -0.01910290     -0.11810300       1
H              14.72880000     16.90540000      8.15938000      0.05678040      0.00585450      0.00210212       1
O              19.84740000     19.05420000     14.21540000     -0.05733090     -0.01772580     -0.07248540       8
H              20.44530000     18.65580000     12.29630000     -0.01285140      0.01081420      0.06376880       1
H              17.85070000     18.85850000     14.12930000      0.07471840      0.00521046     -0.00014416       1
O               6.08966000      0.62038900      5.94559000     -0.05780150     -0.13945800      0.02834330       8
H               6.84547000     21.26810000      7.35197000     -0.01676660      0.03645970     -0.04287980       1
H               7.06584000      1.95006000      5.87789000      0.07853800      0.10895800      0.00611383       1
O               0.76109300     18.20380000      9.76088000      0.02846300     -0.03699950      0.00293775       8
H               0.79462200     19.46930000      8.45695000     -0.00080077      0.01254570     -0.01236460       1
H               2.00276000     16.82840000      9.15603000     -0.04667500      0.02165880      0.01126950       1
O              18.11440000     13.34870000     14.82360000      0.05001480     -0.07428620     -0.04441020       8
H              17.25370000     14.79900000     14.52530000     -0.03446630      0.05496320     -0.00594745       1
H              18.60480000     12.81050000     12.96620000     -0.02230250      0.01304520      0.04031990       1
O               9.67976000     18.41360000     17.12080000     -0.00319684     -0.02170860     -0.03203990       8
H               8.04114000     18.46240000     17.80610000     -0.03368430     -0.00929200      0.00299259       1
H              10.44180000     19.59680000     18.15530000      0.03586550      0.03283760      0.03567780       1
O               2.46545000     13.75690000      7.85871000      0.04350970      0.00290780     -0.01064870       8
H               4.23027000     14.22660000      7.12923000     -0.04165740     -0.00789711      0.00307151       1
H               1.56182000     12.86900000      6.54252000      0.00530256      0.00424121      0.00413896       1
O              18.61060000      2.67467000      1.32676000      0.08961020     -0.01222670     -0.04367040       8
H              17.78930000      2.29754000      2.79805000     -0.03696320     -0.02482520      0.04473830       1
H              20.39670000      1.64373000      1.45844000     -0.06643220      0.01502040     -0.00598752       1
O              14.57370000      0.27031700      5.05552000     -0.05783590     -0.05285570     -0.21568500       8
H              15.01320000      0.40256300      6.56474000      0.04887220      0.00640373      0.18264300       1
H              14.26160000     20.31270000      4.46469000      0.00602925      0.05392700      0.02569200       1
O              16.95010000      4.89407000      8.87635000     -0.05095840      0.01084030      0.12154000       8
H              17.63620000      5.64516000     10.57400000     -0.00563317     -0.02502270     -0.07329700       1
H              17.99390000      4.93525000      7.50491000      0.05850040      0.01332750     -0.04159420       1
O               7.56565000      7.87783000      1.66440000      0.09173900     -0.02330640      0.01785830       8
H               9.76043000      7.44920000      1.64128000     -0.09311240      0.02184170      0.00100190       1
H               7.19407000      9.22887000      0.49238000      0.01301190      0.00652258     -0.01369870       1
O               9.79572000      7.57707000     18.60200000     -0.07955150     -0.04671020     -0.00087779       8
H               8.05202000      6.43387000     18.34450000      0.06411060      0.03978320      0.01337260       1
H              10.36250000      7.72970000     16.88960000      0.00157855      0.00839908     -0.01266690       1
O               4.37521000     17.91470000     17.08070000      0.12236100      0.10226200      0.01623640       8
H               5.02840000     18.17210000     15.40330000     -0.01891990     -0.00692443     -0.01239140       1
H               3.13039000     16.87360000     17.20580000     -0.10421900     -0.09513750     -0.00597688       1
O               2.85977000      0.55476800     19.06130000      0.01024400      0.02207180      0.01761820       8
H               1.38682000      1.16017000     18.24050000     -0.01670590      0.00012400     -0.01322430       1
H               3.07493000     20.76020000     18.51230000      0.00819828     -0.02498760     -0.01064780       1
O               0.46808700      5.15716000     20.23530000      0.04275170      0.07975260      0.02690450       8
H               1.95950000      4.46948000     20.97860000      0.00083390     -0.01789600      0.00911413       1
H              21.34010000      4.07787000     19.43850000     -0.04795210     -0.06406450     -0.03545550       1
O              14.16330000     17.55890000     14.14400000      0.17683300     -0.04593120     -0.09912880       8
H              13.60020000     17.22370000     12.41050000      0.01573940      0.00029912     -0.00197856       1
H              12.79120000     17.94460000     14.79310000     -0.18775200      0.04897590      0.10366500       1
O              18.54240000      7.67421000      1.28671000      0.02276430      0.11711100      0.15969500       8
H              18.26910000      6.22692000      0.71191000     -0.02575000     -0.17970500     -0.07350270       1
H              18.64950000      8.81316000     21.95880000      0.00203383      0.06562600     -0.08449060       1
O              13.80260000     12.53220000     20.71790000     -0.04306640     -0.00063983     -0.01246570       8
H              14.81030000     13.94520000     20.44820000      0.03892090      0.04639710      0.00959837       1
H              12.40640000     13.23220000     19.42950000      0.00218417     -0.03334050      0.02318170       1
O              11.06400000      2.75164000     15.41360000      0.04296010     -0.02343650      0.02931190       8
H              11.38030000      4.53586000     15.12350000     -0.00351878     -0.00686542     -0.00772721       1
H              12.84750000      2.11448000     16.30000000     -0.05071110      0.01189790     -0.03172930       1
O               3.95575000      4.17467000      1.86787000     -0.11558900     -0.11607400      0.05653450       8
H               4.93820000      5.46977000      1.67354000      0.08794950      0.11249300     -0.00268164       1
H               2.86402000      4.33679000      3.48444000      0.03708640     -0.00235599     -0.05288750       1
O              15.83730000     17.34900000     21.06200000      0.07756180     -0.00714341     -0.06846790       8
H              17.43400000     18.19380000     19.80540000     -0.05074490     -0.03269600      0.05387360       1
H              14.61290000     18.48680000     21.59270000     -0.02343390      0.03689980      0.00766896       1
O              11.84520000     21.36120000     21.37100000     -0.05822400      0.00668652      0.00958550       8
H              10.04210000     21.58830000      0.41857100      0.04874150     -0.02563990     -0.02042910       1
H              11.88670000      1.24824000     20.90450000      0.02459950      0.00473030     -0.00356449       1
O               6.07536000     16.52770000      0.84612800     -0.00979307      0.04174850     -0.06793170       8
H               6.16657000     18.48120000      0.51701600      0.00014110     -0.05251020      0.01226420       1
H               6.31373000     16.36130000      2.57627000      0.00433212     -0.00452101      0.04871730       1
O               7.45457000     21.18330000      1.40315000     -0.03092580      0.03360650      0.01264750       8
H               7.46766000     21.16070000      3.32518000     -0.01107550      0.00774775     -0.02808920       1
H               6.22187000      0.70142500      0.98578700      0.01979820     -0.02642220      0.01387930       1
O              17.25130000      9.79532000     18.98740000     -0.04160960      0.01766670      0.03797240       8
H              15.67700000     10.90540000     19.85750000      0.03658010     -0.03774310     -0.02694320       1
H              17.70910000     10.81250000     17.60250000      0.01096740      0.01240550     -0.02192800       1
O              20.62210000      4.89040000      5.48371000     -0.01202970     -0.02568270     -0.04612830       8
H              21.85980000      6.29008000      5.58958000     -0.00826851     -0.00349858      0.00105221       1
H              20.19720000      4.66948000      3.59338000      0.00767502      0.00758523      0.04683530       1
O               1.88530000      9.93753000      0.77448400      0.11603900      0.11819600      0.05450650       8
H               3.79245000     10.09840000      0.21366900     -0.06328390     -0.00478475      0.00396611       1
H               1.27648000      8.56598000     22.02870000     -0.05631940     -0.11879600     -0.06487370       1
O              16.04900000     21.63440000     10.33130000     -0.11245700     -0.06411150      0.09981910       8
H              16.97960000      0.94571700      9.82296000      0.09495370      0.15365800     -0.04071950       1
H              16.59280000     20.41040000      9.30644000      0.02223700     -0.08865180     -0.04955040       1
O               1.86476000      8.23263000      5.60288000     -0.02144930      0.01553550      0.01319600       8
H               3.34085000      7.64547000      6.37661000      0.03857190     -0.00446381      0.02181820       1
H               2.15558000      8.54108000      3.87124000      0.00579064      0.01680680     -0.02734150       1
O               5.19086000     12.70250000     12.84380000     -0.00431440      0.00271483     -0.04932370       8
H               3.61049000     13.33100000     13.69730000      0.01485780     -0.00253381     -0.01166160       1
H               4.92960000     12.74880000     10.91700000     -0.00735051      0.00083209      0.05414650       1
O               5.70477000      2.34556000     12.05680000      0.19372700     -0.03351690     -0.09668810       8
H               6.49884000      2.27739000     13.54700000      0.03481990      0.00827551      0.07152200       1
H               4.16599000      2.56065000     12.23380000     -0.21810400      0.04400370      0.02595640       1
O               9.54349000      4.13285000      7.23568000     -0.05764540     -0.02314440      0.04617140       8
H              10.57950000      4.80412000      6.00086000      0.04778250      0.00734721     -0.01399140       1
H              10.06780000      3.19759000      8.84250000      0.01758270      0.02078740     -0.04288230       1
O              13.99880000     12.58410000      3.84072000     -0.03087510      0.01148470     -0.06731290       8
H              12.39040000     12.04230000      4.53159000      0.00562949     -0.00712752      0.00958008       1
H              13.44570000     12.72080000      1.78573000      0.03018100     -0.01054290      0.06207450       1
O               0.95091100     15.04160000      0.49361900      0.01249100      0.01755850     -0.00741607       8
H               1.12835000     13.31000000      0.83905200     -0.00387494     -0.02986580      0.00246406       1
H               2.67998000     15.67410000      0.63316700     -0.00956479      0.00703286      0.00033368       1
O              10.52820000     12.49340000     13.02730000     -0.00447719      0.04583390      0.00705801       8
H              11.10430000     10.84760000     12.84880000      0.00793581     -0.03457340     -0.01204190       1
H               8.74885000     12.67980000     12.68600000     -0.00827146     -0.00855005      0.00315164       1
O               6.16314000      3.74757000     17.07030000      0.11242200     -0.02174430     -0.00269457       8
H               7.54447000      2.33188000     17.51510000     -0.03817690      0.05888800     -0.02339330       1
H               4.81927000      3.03839000     17.87940000     -0.06435380     -0.02822560      0.03195270       1
O              18.03970000     12.82220000      9.52513000      0.03373990      0.03927030     -0.08534760       8
H              17.70150000     14.87900000      8.61561000      0.00376906     -0.05835580      0.04809950       1
H              19.15970000     12.17780000      7.90132000     -0.04395000      0.01380800      0.06026040       1
O              12.46400000      7.63974000     14.66860000     -0.05221010      0.01236620      0.04114790       8
H              13.66580000      7.02675000     15.86570000      0.03420530     -0.00543597     -0.00430906       1
H              13.07990000      7.68434000     13.05940000      0.03035650      0.00115240     -0.05974160       1
O              19.18520000     11.49410000      4.71377000     -0.03479110     -0.00965164     -0.01851200       8
H              17.28250000     11.82970000      4.47923000      0.03454130     -0.01084780      0.00678661       1
H              19.41040000      9.85924000      3.81647000     -0.00318330      0.01806090      0.01216950       1
O               6.59752000     15.71320000      5.67078000      0.02436660      0.07064840      0.05235070       8
H               7.81894000     14.39210000      5.78937000      0.01023650     -0.02498110     -0.00325635       1
H               7.47677000     17.18530000      6.84524000     -0.03234990     -0.04537420     -0.04214140       1
O              16.18420000      5.47088000     16.87890000      0.04810830     -0.03929810     -0.01206900       8
H              17.71370000      4.35515000     16.27580000     -0.04420470      0.03235230      0.02049700       1
H              16.84900000      6.82215000     17.95180000      0.00689854      0.01001730     -0.00583783       1
O              12.76660000      4.32843000     20.66330000     -0.11265500      0.02542830     -0.00812969       8
H              11.55490000      5.62625000     19.47410000      0.01926820     -0.03188440      0.04746770       1
H              14.18830000      4.61759000     19.81010000      0.08938460      0.00246048     -0.04206840       1
O               4.95267000      7.57916000     13.44980000      0.00070953     -0.11331500      0.05117770       8
H               5.95723000      6.39666000     14.73470000     -0.03649160      0.04269610     -0.04547380       1
H               5.65029000      9.12642000     13.29870000      0.03072450      0.07709210      0.01039550       1
O               8.48968000     19.27930000      8.78035000      0.07030780      0.02993380     -0.03111330       8
H               7.32641000     19.49590000     10.05130000     -0.05391090     -0.00935463      0.05696230       1
H               9.76328000     20.75830000      9.31218000     -0.01199460     -0.02000100     -0.00789482       1
O               6.08076000      7.52856000      8.71721000     -0.14658200      0.16661400      0.06887390       8
H               7.08980000      6.38784000      8.35912000      0.14627900     -0.16422100     -0.05347230       1
H               5.82129000      7.46429000     10.59810000     -0.00389749     -0.01015970     -0.03143600       1
O               0.87585300      3.12661000     11.44360000     -0.00505301      0.02841660      0.01849710       8
H               0.63804500      4.96058000     11.09630000     -0.00236353     -0.00649497      0.01407300       1
H               1.08731000      2.69958000      9.73333000      0.00245130     -0.03595850     -0.02917380       1
O              20.65520000      2.10748000     15.92110000      0.09722540      0.11322900     -0.03173670       8
H              21.52610000      2.20956000     14.09460000     -0.02128560      0.00579768      0.04717990       1
H              19.69700000      0.80095400     15.68490000     -0.08034170     -0.11291000     -0.01286000       1
O               1.43790000      0.26381300      7.09157000      0.02760190      0.04000840     -0.04321040       8
H               3.23623000      0.77350000      6.16226000     -0.04634240     -0.02379330      0.03299620       1
H               0.12843800      1.23708000      6.19237000      0.01410060     -0.01032350      0.00727094       1
O              12.34500000     17.45960000      4.15648000     -0.00808360      0.00568108     -0.00199054       8
H              13.23570000     15.86970000      4.35332000     -0.00312473     -0.00783223     -0.00758591       1
H              10.98430000     17.17030000      2.97085000      0.00960481      0.00090266      0.00525805       1
O              13.00430000      5.99736000      3.23700000      0.05826640      0.05977310      0.05058560       8
H              14.83230000      6.63934000      2.92324000     -0.05468960     -0.00908909      0.02027060       1
H              12.82710000      5.20121000      1.71569000     -0.01090230     -0.04089740     -0.05841710       1
O               8.63763000     11.27450000      5.65302000      0.00346372      0.00449566     -0.04277570       8
H               8.07518000     10.29150000      4.07595000      0.01124530      0.00399059      0.04728880       1
H               8.77648000     10.29610000      7.16347000     -0.00598324     -0.01632540     -0.00619727       1
O              11.27610000      1.12960000     10.65490000      0.01820730     -0.03881530      0.05553440       8
H              13.09340000      0.40348500     10.47170000     -0.02932020      0.02347320      0.00115957       1
H              10.99270000      1.20993000     12.69180000      0.01002010      0.01298040     -0.05416810       1
O              18.50970000     16.42950000      3.20797000      0.05166190     -0.00643921      0.07111790       8
H              17.52540000     16.26390000      1.82458000     -0.04752180      0.00313590     -0.06556660       1
H              19.31450000     14.77850000      3.37760000      0.00236168      0.01048990      0.00146849       1
O              20.53530000     17.95430000     19.08570000     -0.01490910     -0.04090750      0.05758760       8
H              21.11990000     16.16460000     19.44430000     -0.00806298      0.03909720      0.00028253       1
H              20.96050000     18.34750000     17.46200000      0.00788643      0.00794920     -0.06593490       1
O               1.20487000     14.15200000     15.72530000      0.11618000     -0.03554520      0.08681510       8
H               1.76177000     12.72400000     17.13880000     -0.03503610      0.05003700     -0.06097070       1
H              21.57120000     13.75340000     15.07200000     -0.07857810     -0.02145850     -0.01790970       1
