192
TotEnergy=-1103.38671000 cutoff=-1.00000000 nneightol=1.20000000 pbc="T T T" Lattice="25.09724000       0.00000000       0.00000000      -0.00000100      25.09724000       0.00000000      -0.00000100      -0.00000100      25.09724000" Properties=species:S:1:pos:R:3:force:R:3:Z:I:1
O              23.34860000     -3.26020000    -32.35110000     -0.03432180     -0.03669590     -0.02904410       8
H              21.73530000     -2.91563000    -33.32310000      0.02667680      0.00132479      0.01836420       1
H              23.52820000     -5.11176000    -32.85510000      0.01009240      0.03457330      0.01190140       1
O              48.62220000     47.42790000     -1.74600000      0.00434381     -0.00683833     -0.07102380       8
H              49.42530000     48.92360000     -1.18955000      0.00997972      0.02691920      0.01782520       1
H              48.84190000     47.61050000     -3.68758000     -0.01385030     -0.01579530      0.04152460       1
O              12.90910000      2.82095000     15.98840000      0.00388868      0.02147780     -0.05838050       8
H              13.80620000      3.78224000     17.11600000      0.03780890      0.03797880      0.03599460       1
H              12.09170000      1.66519000     16.98240000     -0.03065870     -0.04794070      0.02240080       1
O              -6.40445000     -8.35760000     -2.92150000      0.02635430      0.03377860      0.06464590       8
H              -4.61023000     -8.79711000     -3.21430000     -0.01688870     -0.00233219      0.00371647       1
H              -6.37086000     -7.18743000     -1.19063000     -0.00675124     -0.03346010     -0.06815390       1
O               5.93529000     32.37630000     18.21120000      0.03954900      0.00464811     -0.05525290       8
H               7.06021000     33.32260000     19.21300000      0.00316084      0.01224780      0.03418280       1
H               7.22643000     32.48500000     16.67360000     -0.04557390     -0.02437250      0.02874160       1
O              -6.00474000     10.39070000      6.96764000     -0.05933110     -0.05505670     -0.04496550       8
H              -6.65074000      9.12451000      8.25244000      0.02207330      0.02872800     -0.00809360       1
H              -6.99475000      9.55170000      5.34566000      0.03998140      0.03125820      0.04683510       1
O              46.40530000     29.16690000     13.97310000     -0.01681930     -0.06455560     -0.01769620       8
H              48.00750000     28.27450000     13.77780000      0.00347371      0.01390130     -0.00224501       1
H              45.24910000     27.64010000     13.48040000      0.01657980      0.04868130      0.01622600       1
O              -1.01127000    -32.52500000      8.42366000      0.04619720      0.03401910     -0.03459100       8
H               0.93129000    -31.94460000      8.17634000     -0.07609680     -0.01466010      0.00898553       1
H              -2.10811000    -31.44390000      7.30130000      0.03001410     -0.01800410      0.02356130       1
O              31.48210000    -34.54720000     18.97360000      0.03792720     -0.04660880      0.07858960       8
H              30.49340000    -34.96920000     17.53830000     -0.00212763     -0.02268100     -0.01589760       1
H              31.89750000    -36.12880000     20.22120000     -0.02956500      0.06156200     -0.05481750       1
O               9.15379000    -28.37220000    -26.01620000     -0.04241360      0.03913440     -0.03320500       8
H              10.62310000    -28.14860000    -26.98740000      0.02878380     -0.00804190      0.00452865       1
H               9.12191000    -29.58920000    -24.73910000      0.01949350     -0.03122410      0.03114840       1
O             -10.34390000     -0.71520800      7.53101000     -0.01344170     -0.01927500      0.02617410       8
H             -11.27150000      0.30279800      6.40312000     -0.00257421      0.01930630     -0.02544190       1
H             -11.74070000     -1.34760000      8.64122000      0.02526620      0.00685156     -0.00552496       1
O             -11.53950000     28.25670000     53.26290000      0.02522840      0.00186861      0.01933610       8
H             -13.28850000     28.65800000     53.39420000     -0.01512350      0.00621948     -0.01303780       1
H             -10.86990000     28.13810000     51.55630000     -0.01258840     -0.00820419      0.00162756       1
O              13.40850000    -34.41730000    -15.20540000      0.03585960      0.06163850     -0.06345890       8
H              14.59310000    -33.89060000    -16.95990000     -0.04046480     -0.04199260      0.07775660       1
H              12.86850000    -36.10170000    -14.95690000      0.00502740     -0.01402480     -0.01657670       1
O              29.48460000     14.96790000     39.29220000     -0.01191240     -0.02194540     -0.02000520       8
H              28.11230000     15.69940000     40.38560000      0.00129234     -0.02467690     -0.03296700       1
H              29.03510000     13.37510000     38.14600000      0.00046420      0.04467210      0.04432120       1
O               0.47006900      1.05584000      1.27632000     -0.13622300     -0.09055460      0.04018840       8
H               0.19087600     -0.39625300      2.69178000      0.01880780      0.05815090     -0.03154320       1
H               1.93591000      1.76793000      1.00611000      0.11173200      0.03679040     -0.00140523       1
O             -31.58690000     21.82080000     30.47860000     -0.03841370      0.02362990      0.01981220       8
H             -33.17190000     22.85620000     31.30170000      0.04356030     -0.03351290     -0.02134020       1
H             -31.85710000     20.01860000     30.85300000      0.00015830      0.01573590      0.00011448       1
O             -34.98490000     12.38410000     24.46610000      0.06389400      0.05788230      0.01879900       8
H             -35.81020000     11.57250000     23.17480000     -0.04327240     -0.03729110     -0.04290650       1
H             -33.80830000     13.43040000     23.39840000     -0.01250730     -0.01762960      0.02368770       1
O             -20.87570000     67.09900000    -20.75200000     -0.01590720     -0.02207990     -0.05770780       8
H             -21.30660000     67.39370000    -19.13280000      0.00374367      0.03918400      0.08163380       1
H             -21.79670000     65.49880000    -20.70810000      0.01441500     -0.01809370     -0.03191220       1
O              68.66700000     20.92040000     40.11630000      0.01016100      0.02363630     -0.00612097       8
H              67.74380000     22.35730000     39.21840000      0.00940527     -0.03799800      0.03510120       1
H              68.06090000     19.83060000     41.57720000     -0.02030100      0.01925710     -0.03803270       1
O              58.57150000    -20.80300000      3.46647000      0.02639720      0.04119220     -0.16284300       8
H              58.42680000    -21.18180000      5.03444000     -0.02970970     -0.05049310      0.14092800       1
H              57.81300000    -21.98840000      2.17868000      0.00392949      0.02118570      0.03012590       1
O              29.23330000     18.46370000    -15.51550000      0.00451498      0.03032240     -0.03788440       8
H              30.98050000     18.61610000    -15.06270000      0.02373550      0.00535895     -0.01748560       1
H              28.69230000     17.56140000    -14.15940000     -0.02875360     -0.03867610      0.05618490       1
O             -15.79480000      6.18146000     64.48320000      0.06209960      0.01769020      0.02720580       8
H             -14.59390000      7.62918000     64.45710000     -0.03155240      0.01168430     -0.02081270       1
H             -14.34260000      5.27447000     65.32820000     -0.03658850     -0.02492720     -0.01082350       1
O               6.13383000      1.59853000      0.04254100      0.03008860      0.00690171      0.08293240       8
H               5.28733000      1.64147000     -1.39652000     -0.05728290      0.02970580     -0.09526250       1
H               6.92774000      0.06140200     -0.18197400      0.03255930     -0.04554890      0.00796400       1
O              45.80490000      3.50884000     26.03130000     -0.08665410      0.09248100     -0.01695210       8
H              45.44210000      5.06543000     27.13180000      0.01542190     -0.04625450     -0.02529140       1
H              47.05550000      2.49334000     26.51530000      0.07098360     -0.04621360      0.04015580       1
O              -1.00891000     61.94850000     31.99800000     -0.07236020      0.02550350     -0.02178690       8
H              -3.00562000     61.26100000     31.42380000      0.06929060      0.02336430      0.03596900       1
H              -1.20489000     63.87070000     32.16400000      0.00181674     -0.04992420     -0.00151415       1
O              11.73750000     35.96560000     13.51430000      0.05958070     -0.00481206     -0.00798960       8
H              10.84780000     36.23550000     11.87550000     -0.00013209     -0.00705839      0.00337715       1
H              13.66020000     35.68620000     13.22910000     -0.05681780      0.00860512      0.00100354       1
O             -18.27490000     21.03790000     19.54660000      0.00371188     -0.05151280      0.07765240       8
H             -19.03860000     19.24670000     19.64690000      0.02361760      0.03940300     -0.01628490       1
H             -17.47160000     20.95330000     21.49220000     -0.02582280      0.01715280     -0.06259610       1
O              32.96780000     35.09730000     54.48370000      0.03298760     -0.01721400      0.00431209       8
H              33.35530000     33.26270000     54.54250000     -0.02256170      0.02201690     -0.00835677       1
H              31.17940000     35.55520000     54.38870000     -0.00788998     -0.00934725      0.00486604       1
O              12.42830000     35.02600000     20.78270000     -0.02519770      0.08865760     -0.03636380       8
H              12.43870000     36.46490000     19.23720000      0.00032907     -0.05733410      0.05376480       1
H              13.11360000     33.44940000     20.33410000      0.02106040     -0.01384840     -0.01893550       1
O               2.97826000    -25.93320000     17.42280000      0.02322310     -0.04046970     -0.00263249       8
H               1.39169000    -26.86570000     17.43440000     -0.00372372      0.00585343     -0.00009277       1
H               4.25102000    -27.39120000     17.49860000     -0.02138580      0.03937670      0.00726292       1
O              -0.17930200     19.53640000      1.81572000     -0.03456080      0.05244780     -0.06252080       8
H               1.34271000     18.93570000      2.36983000      0.05835150     -0.02990630      0.02246070       1
H               0.14832700     20.39690000     -0.02401300     -0.02426970     -0.02369820      0.05284820       1
O               1.50845000      1.60149000     12.76430000      0.03690750     -0.04516410      0.02771060       8
H               2.09356000      0.52687600     11.31040000     -0.02220120      0.01525040      0.00262536       1
H               2.30992000      0.49940900     14.17040000     -0.02408810      0.03558970     -0.02307140       1
O             -34.66420000     56.26970000    -30.34480000      0.05690390     -0.00342264     -0.03767140       8
H             -32.73740000     55.96450000    -30.71800000     -0.04666100      0.01464360      0.00706526       1
H             -34.95970000     55.06240000    -29.09050000     -0.00567193     -0.02558950      0.02900790       1
O               6.48916000     52.56840000    -17.10230000     -0.03495190     -0.06852490     -0.02454100       8
H               5.73515000     53.43710000    -15.80280000     -0.00721510      0.05018010      0.04526790       1
H               4.94126000     51.34560000    -17.16720000      0.04309990      0.01363800     -0.01523470       1
O             -36.20160000     42.39630000      1.85394000      0.02163130     -0.08385810     -0.02687090       8
H             -35.67420000     40.61770000      0.77629700     -0.03068320      0.06867440      0.04623050       1
H             -37.68660000     41.86590000      2.84762000      0.00917530      0.00757349     -0.02108730       1
O              19.63060000     35.82170000     18.87640000     -0.00484267      0.04395410      0.01309310       8
H              19.98660000     36.40130000     17.20680000     -0.00451033     -0.00122333     -0.01310000       1
H              20.19060000     34.15000000     18.97290000      0.00990858     -0.04113840     -0.00127409       1
O             -16.49440000    -13.95240000      9.50118000      0.11859500     -0.03532190     -0.06411980       8
H             -16.12840000    -14.46070000      7.57377000     -0.03567590      0.02394500      0.06103730       1
H             -18.07120000    -13.47970000      9.91895000     -0.07783790      0.01433510      0.00268452       1
O             -46.59350000      3.28338000     21.04330000      0.00211248     -0.00355731     -0.04123470       8
H             -47.02970000      1.72523000     20.02880000      0.00977187      0.02952930      0.00910543       1
H             -45.75090000      4.51174000     19.79920000     -0.01464520     -0.02434030      0.02450870       1
O             -21.52690000    -14.30660000     36.06720000      0.03252650      0.12253300      0.00681430       8
H             -21.58450000    -15.92140000     36.44740000     -0.00359061     -0.12055200      0.03094040       1
H             -22.64810000    -14.04630000     34.77290000     -0.03642430      0.00836424     -0.03853670       1
O              17.40210000     16.78670000     31.21830000      0.06614170     -0.07966150      0.04123370       8
H              18.35740000     14.94470000     31.17960000     -0.03907250      0.07424610      0.00797794       1
H              16.27060000     16.65580000     29.89850000     -0.03437920      0.00159323     -0.05354160       1
O             -22.93780000     -1.27158000     33.73040000     -0.01045350     -0.05298330     -0.03587690       8
H             -22.17960000     -3.06519000     34.11040000     -0.02696230      0.05520700     -0.01565470       1
H             -24.55030000     -1.48009000     32.13030000      0.04283460     -0.00468164      0.04617610       1
O              42.97120000      7.78887000     36.92330000     -0.07538590      0.01973740     -0.06828830       8
H              43.90110000      6.49741000     37.44930000      0.05585330     -0.07489940      0.02879570       1
H              43.45020000      9.16622000     37.82850000      0.01642470      0.05667040      0.03457280       1
O              -8.58377000    -33.16440000     -7.43966000      0.01308720     -0.00677759      0.06495820       8
H              -7.57852000    -33.10580000     -5.45888000     -0.04493660     -0.01037730     -0.05911120       1
H             -10.35600000    -33.86180000     -7.27728000      0.03042520      0.01542690      0.00161775       1
O              54.41500000    -19.11940000    -13.02000000      0.03215960      0.02279440     -0.00660619       8
H              56.09970000    -18.71150000    -12.26140000     -0.03387770     -0.02567930     -0.00662435       1
H              53.48620000    -20.55770000    -12.39400000      0.00568287     -0.00693095      0.01050420       1
O              10.79810000     -0.60330800     10.82880000     -0.02695460      0.00546167     -0.07158210       8
H              10.75150000     -0.15347800     12.53670000     -0.00765526      0.00964937      0.02741100       1
H               9.61539000      0.47178800      9.71695000      0.02297030     -0.01999780      0.03942380       1
O             -35.00700000     -2.41031000     46.72100000      0.02983160     -0.00076304      0.05811650       8
H             -34.20250000     -3.55398000     45.58840000      0.00193622     -0.00468830     -0.00758008       1
H             -33.89710000     -2.73195000     48.41800000     -0.03512300     -0.00250941     -0.04860880       1
O              11.66300000    -10.81040000     -7.85010000     -0.02033860     -0.03497700     -0.02773990       8
H               9.88766000    -10.52960000     -7.21037000      0.03252870     -0.00091821     -0.02348410       1
H              11.65000000    -11.94430000     -9.60096000     -0.01034880      0.03363730      0.05457990       1
O              21.36290000     17.12570000     12.86930000      0.03167620      0.07532390     -0.03760910       8
H              20.51530000     18.90550000     13.29570000      0.01556390     -0.05745520     -0.00732051       1
H              22.76830000     17.68160000     11.46390000     -0.05398930     -0.02534950      0.04046670       1
O              10.77870000     23.53340000     -8.76169000     -0.05372870      0.01178140      0.03662120       8
H               9.36942000     23.34010000     -7.39599000      0.04405760     -0.00969725     -0.04246750       1
H              12.13820000     22.44990000     -8.35255000      0.00437058     -0.01356520      0.00828113       1
O              23.83990000     48.04430000     30.15030000     -0.00639179     -0.01615150     -0.03310860       8
H              21.93810000     48.21510000     30.33500000      0.02978290     -0.00994441     -0.00188638       1
H              24.36950000     46.52670000     28.55690000     -0.01706440      0.01342150      0.03009840       1
O              -7.40350000      8.00605000      2.42517000     -0.04056550     -0.06469580      0.01755510       8
H              -7.71189000      9.20397000      1.20921000      0.00001917      0.05046690     -0.03878110       1
H              -8.95705000      6.92250000      2.04114000      0.03594230      0.01460350      0.02383620       1
O              16.84400000    -24.07030000     12.61860000     -0.03590120      0.01934680     -0.04700170       8
H              16.35500000    -23.71130000     10.71050000      0.01540010     -0.01784440      0.06465450       1
H              15.33060000    -23.45190000     13.59080000      0.02480070     -0.00848640     -0.01392320       1
O               0.03936100     16.73340000     41.37870000     -0.00055995     -0.00189355      0.05949480       8
H              -0.79667200     15.99960000     42.93660000      0.01960330      0.00275684     -0.02613660       1
H              -1.18930000     16.49450000     40.09850000     -0.02307920     -0.00128648     -0.02281380       1
O              43.61450000     46.32460000      0.11637200     -0.05457570     -0.03030550     -0.01704330       8
H              45.15090000     46.87510000     -0.36933100      0.07507950      0.02317570     -0.04163680       1
H              43.74330000     46.75290000      1.81406000     -0.01845580      0.00416947      0.06024940       1
O              23.24830000     13.80040000    -29.63690000      0.00251786     -0.00153454      0.00237170       8
H              24.78640000     13.10100000    -28.90380000     -0.01654820      0.00034079     -0.00481902       1
H              22.02630000     12.41550000    -30.08810000      0.01091480      0.00899186      0.00526798       1
O             -16.05560000     43.55410000      3.15376000      0.04386720      0.02583120      0.03208570       8
H             -17.67180000     42.82630000      3.18109000     -0.02626540     -0.01367620      0.01257000       1
H             -15.59090000     44.03930000      4.96935000     -0.02273660     -0.01033810     -0.03777960       1
O               9.25344000    -31.02410000     33.85530000      0.05049420      0.02487650      0.04104170       8
H              10.71510000    -32.46490000     34.29290000     -0.04075670      0.05663980     -0.00163932       1
H               9.60208000    -29.15790000     34.77470000     -0.00046881     -0.08213250     -0.03215280       1
O               3.11534000     36.92830000      3.82732000     -0.04232890     -0.01958850     -0.04808490       8
H               1.59892000     36.55710000      4.86990000      0.01271590      0.00297279     -0.00258078       1
H               2.38823000     36.27230000      1.89841000      0.02877070      0.01658770      0.06038450       1
O              -6.90112000    -12.56710000     13.99510000     -0.06200660      0.01008100      0.07883010       8
H              -7.95433000    -11.59070000     15.53170000      0.04929210     -0.03001110     -0.06842010       1
H              -5.89784000    -11.33600000     13.21460000      0.01333680      0.03034400     -0.01075500       1
O              -4.24217000      5.75333000     18.88020000      0.02378270     -0.00325951      0.05546970       8
H              -2.83176000      5.50327000     20.32920000     -0.03585270      0.01127440     -0.05446080       1
H              -3.76493000      5.26335000     17.18710000      0.00633937     -0.00837241     -0.00127913       1
O              27.36670000    -15.09910000     -0.58803000     -0.00483800      0.01017050     -0.00558038       8
H              26.66700000    -16.67760000     -1.06734000     -0.02558980     -0.01106140      0.00018023       1
H              29.09530000    -15.38650000     -0.92663900      0.03165220      0.00854336     -0.00328077       1
O              24.33270000      6.08237000     47.76160000      0.01705960     -0.03157200      0.00977135       8
H              23.62680000      4.80377000     48.85450000     -0.02499800      0.01066310      0.01278330       1
H              25.88780000      5.08766000     47.59360000      0.00972513      0.00973284     -0.02542780       1
O              15.83150000     27.45090000     48.94720000      0.07085200     -0.05124510     -0.03703800       8
H              17.70410000     27.82270000     49.26780000     -0.04005530      0.00047713      0.00334920       1
H              16.12620000     25.65700000     48.05710000     -0.02697960      0.05845570      0.02187870       1
O             -17.26240000     10.79900000     24.13180000     -0.00740585      0.00278535      0.03765110       8
H             -15.69150000     10.27300000     23.49460000      0.02173930     -0.00678172     -0.02517380       1
H             -16.85620000     10.63920000     25.97720000     -0.01725230      0.00619474     -0.01777950       1
