192
TotEnergy=-1103.46825000 cutoff=-1.00000000 nneightol=1.20000000 pbc="T T T" Lattice="24.77267000       0.00000000       0.00000000      -0.00000100      24.77267000       0.00000000      -0.00000100      -0.00000100      24.77267000" Properties=species:S:1:pos:R:3:force:R:3:Z:I:1
O              23.62340000     -3.58277000    -34.05760000      0.13925500     -0.10886800      0.01877210       8
H              22.04450000     -3.11986000    -34.29250000     -0.11276600      0.01357520     -0.02954990       1
H              23.92740000     -5.77528000    -34.35640000     -0.02012050      0.08888280      0.01341450       1
O              48.75810000     46.85880000     -4.11476000      0.01729350      0.02449160     -0.06681180       8
H              50.26510000     48.11690000     -4.54494000     -0.04969580     -0.05379100      0.00816325       1
H              48.05960000     46.18990000     -5.90735000      0.03764190      0.02671410      0.04960410       1
O              12.99210000      1.23737000     16.36340000      0.01988290      0.08871320     -0.06083240       8
H              13.75160000      1.90975000     17.79310000      0.02318180      0.02240090      0.03311910       1
H              12.48160000     -0.27371100     16.83360000     -0.03858180     -0.10971000      0.02256790       1
O              -6.50567000     -8.52482000     -2.44029000      0.01908870     -0.01583610     -0.05703700       8
H              -4.70422000     -8.85209000     -3.08356000     -0.03723280      0.00572836      0.01955220       1
H              -6.49893000     -7.36087000     -1.10459000      0.01706100      0.02444130      0.03179240       1
O               6.74216000     32.65120000     19.00790000      0.00068658     -0.01824330     -0.02030580       8
H               7.42627000     33.64550000     20.34080000      0.01361010      0.00266314      0.00882729       1
H               8.11110000     31.85790000     17.99440000     -0.00547415      0.01490150      0.00737325       1
O              -5.92080000     11.21450000      7.13202000      0.03554090      0.03513320     -0.06408830       8
H              -6.82917000     10.53970000      8.41345000     -0.03305030     -0.03492460      0.05543530       1
H              -6.01147000     10.20570000      5.60484000      0.00239242      0.00301682      0.01474590       1
O              44.87390000     29.63410000     12.31560000      0.08574310     -0.01527320      0.01189070       8
H              46.66120000     28.70960000     12.44160000     -0.06212750      0.03891620     -0.00438164       1
H              43.76320000     28.30400000     11.91640000     -0.02309260     -0.02346940     -0.00441451       1
O               1.14086000    -31.97710000      6.68914000     -0.15047000      0.05641010     -0.20245300       8
H               1.92106000    -32.07790000      8.04855000      0.10289600      0.00032746      0.18843800       1
H               0.23768300    -30.20160000      6.36786000      0.02992050     -0.05068360      0.01792740       1
O              32.53250000    -35.54020000     18.72290000     -0.03626600     -0.04345840      0.04078940       8
H              31.00130000    -35.97430000     17.61850000      0.03513300      0.00690492      0.01716030       1
H              32.35770000    -36.59460000     20.45950000      0.01063450      0.03973780     -0.06202880       1
O               8.43555000    -27.47720000    -25.86510000      0.01587090      0.00450110      0.00007477       8
H              10.35670000    -27.34020000    -25.67170000     -0.04494430     -0.01809060      0.00179513       1
H               7.55574000    -28.44010000    -24.53530000      0.02972540      0.00749450     -0.00100880       1
O             -11.20940000      2.20615000      6.95488000      0.00042092     -0.02512730      0.03399830       8
H             -11.24980000      3.14884000      5.41756000     -0.01590140      0.00712813      0.00023983       1
H             -12.82510000      1.68376000      7.72199000      0.01788740      0.01666410     -0.02701630       1
O             -11.85820000     31.00820000     52.79340000      0.02160800     -0.01806500     -0.03314130       8
H             -13.35640000     29.89730000     52.54630000      0.01539200      0.01442250      0.00069242       1
H             -10.53320000     30.55040000     51.47390000     -0.03854660      0.00563556      0.03048670       1
O              12.38550000    -34.22300000    -14.77150000     -0.03866500     -0.03631770     -0.03007680       8
H              13.86380000    -34.02360000    -15.85820000     -0.01214520     -0.00337263      0.00108555       1
H              11.06500000    -35.51060000    -15.62900000      0.04638100      0.03908040      0.02933020       1
O              29.11240000     14.03100000     39.52930000     -0.06256280     -0.05347960     -0.03187490       8
H              27.42580000     14.35320000     40.33520000      0.02764050      0.00061916     -0.01401590       1
H              28.43400000     12.53610000     38.20050000      0.03395890      0.05336660      0.04235180       1
O               0.08654100     -0.14246900      1.45016000     -0.09742710     -0.00272478      0.02991840       8
H              -0.19979900     -1.91897000      1.05041000     -0.00007855     -0.00825228     -0.01090200       1
H               1.68629000      0.15262200      1.01547000      0.09418050      0.02216980     -0.02116730       1
O             -31.92370000     21.38730000     31.86660000      0.09523140     -0.03294740     -0.04514520       8
H             -33.34340000     21.92400000     32.53230000     -0.09525770      0.04609590      0.04637520       1
H             -32.20290000     19.61480000     31.68440000      0.00394099     -0.01287160     -0.00056580       1
O             -34.26460000     12.43180000     24.66680000     -0.02274370     -0.06085700      0.00856091       8
H             -34.87980000     10.76540000     23.78600000      0.01229320      0.05029810      0.01527340       1
H             -33.59210000     13.44280000     23.37750000      0.01697850      0.01235600     -0.02604230       1
O             -21.67380000     66.15900000    -22.38040000     -0.01148150     -0.04792630      0.01049630       8
H             -22.64220000     66.28380000    -20.67540000      0.02443910     -0.00047122     -0.03004850       1
H             -21.49000000     64.25640000    -22.67510000     -0.00568933      0.04867760      0.01124170       1
O              68.38240000     21.18650000     38.89860000     -0.04227710      0.03113080      0.04282090       8
H              67.51510000     22.78290000     38.32870000      0.01471810     -0.02853750      0.00180529       1
H              67.60920000     20.84340000     40.71440000      0.01553520     -0.00312997     -0.04782250       1
O              57.71620000    -20.41440000      3.88344000     -0.00562146     -0.03180470      0.05271920       8
H              57.26640000    -21.55110000      5.38059000      0.02101810      0.03437420     -0.01819550       1
H              56.65010000    -21.27400000      2.74297000     -0.01624040     -0.00271067     -0.03410550       1
O              28.20480000     18.59440000    -13.72700000      0.02368430      0.00239429     -0.01612270       8
H              29.94600000     18.54500000    -14.54470000     -0.02343860     -0.00083578      0.02442720       1
H              28.12520000     17.48380000    -12.28320000      0.01034580     -0.00115180     -0.00325248       1
O             -15.31020000      5.55798000     64.98970000     -0.01783720      0.09779540     -0.05659880       8
H             -14.35130000      6.74525000     63.63430000     -0.04036920     -0.01524110      0.03445280       1
H             -13.97710000      4.52283000     65.02350000      0.06132570     -0.08012140      0.02072130       1
O               5.03471000      1.60481000      0.14629100      0.04381520     -0.08019160      0.10120900       8
H               4.84069000      2.48085000     -1.24605000     -0.01911660      0.06691280     -0.10621100       1
H               6.47766000      0.45327500     -0.24226900     -0.02282190      0.00959359      0.00361687       1
O              46.57690000      4.32732000     24.92570000      0.02011500     -0.06311710      0.00306403       8
H              46.17730000      5.85929000     25.74920000      0.00282879      0.00547269      0.02662710       1
H              47.69560000      2.88918000     25.70780000     -0.02746720      0.04592480     -0.01142810       1
O              -0.46747900     61.64190000     31.49630000     -0.04251860      0.05372070     -0.00299280       8
H              -2.32491000     61.71710000     31.47360000      0.00408439     -0.03668950      0.00915433       1
H              -0.57194300     63.53110000     31.38480000      0.03725270     -0.01822250      0.00203333       1
O              11.64340000     34.02210000     12.24100000      0.06472920      0.00251735     -0.02047620       8
H              10.57370000     34.69650000     10.91650000     -0.00113811      0.00151218     -0.00273002       1
H              13.60350000     34.22850000     11.60110000     -0.06725780     -0.01134070      0.03170640       1
O             -17.57980000     19.39730000     19.07340000      0.01315180      0.01397220      0.05655720       8
H             -17.46750000     17.57230000     18.80330000      0.00048482      0.00361112      0.01538550       1
H             -17.30430000     19.94810000     21.04440000     -0.00391919     -0.02011300     -0.07188330       1
O              32.61160000     35.11030000     53.11770000     -0.00260564      0.01457020     -0.00143500       8
H              33.62850000     33.68480000     53.62510000     -0.01674590     -0.01016270     -0.00799322       1
H              30.74950000     34.90690000     53.02610000      0.01685970     -0.01159730      0.00431111       1
O              13.50320000     33.52900000     21.21440000      0.02898720     -0.06606030      0.11836500       8
H              13.12220000     34.38670000     19.81190000     -0.01673120      0.03230210     -0.09355220       1
H              14.04410000     31.74120000     21.10850000     -0.00932958      0.02523220     -0.01934290       1
O               4.09451000    -26.50450000     17.77380000      0.04437290     -0.01443000      0.04266720       8
H               3.18546000    -26.69740000     16.34050000     -0.04331350     -0.00115070     -0.05777590       1
H               5.09477000    -28.13230000     17.78080000     -0.00659691      0.02585550      0.01593520       1
O              -0.46539000     19.84180000      0.09845000     -0.00250318      0.00717653     -0.03431900       8
H               0.99078600     18.79340000      0.37509000      0.00328695     -0.00798336      0.00895071       1
H              -0.48268500     20.25030000     -1.83699000     -0.00210278      0.00239897      0.03584830       1
O               0.96360600      2.70964000     13.77330000     -0.06651230     -0.07563950      0.02334880       8
H               1.22403000      1.49550000     12.41090000      0.02398550      0.00894170     -0.01013200       1
H              -0.17325600      1.26963000     14.63470000      0.03869370      0.05951030     -0.00828703       1
O             -33.90170000     53.42810000    -29.53860000     -0.03870120     -0.01404800      0.02790190       8
H             -32.49010000     54.27980000    -30.11420000      0.04364370      0.02574680     -0.02991120       1
H             -33.48350000     53.14800000    -27.79330000     -0.00297829     -0.01412940      0.00704535       1
O               7.45075000     51.48930000    -15.72570000     -0.04362380     -0.05630040     -0.00131825       8
H               6.96703000     52.77810000    -14.55200000     -0.00475890      0.01197500      0.00873878       1
H               5.88617000     50.26420000    -15.55130000      0.04710590      0.03672110     -0.00630759       1
O             -36.07330000     41.99910000      2.22086000      0.10782100      0.03230270      0.00857387       8
H             -35.58570000     40.61080000      1.26503000      0.00346093     -0.04064970     -0.02153630       1
H             -37.69740000     41.94690000      2.55620000     -0.11768200     -0.00563933      0.01879900       1
O              17.68980000     37.17570000     18.43090000      0.06662210     -0.02481840      0.02974530       8
H              16.10050000     37.50660000     17.79080000     -0.03873440     -0.00714424     -0.01589040       1
H              18.10460000     35.39620000     18.74110000     -0.02565070      0.01570820     -0.01241920       1
O             -16.32580000    -13.07340000      8.58209000     -0.06930230     -0.02052600     -0.01870700       8
H             -16.71890000    -13.58050000      6.69995000      0.01503270      0.01846570      0.04510030       1
H             -18.15890000    -13.26460000      9.40968000      0.05755290      0.00923823     -0.02202640       1
O             -45.60490000      3.89740000     20.31160000      0.05675890     -0.00650551     -0.08398740       8
H             -45.32990000      2.52287000     18.90010000     -0.01381280      0.03327810      0.05097720       1
H             -44.19370000      5.25316000     19.54600000     -0.05223710     -0.02802180      0.03837680       1
O             -21.27300000    -14.30070000     35.63070000      0.02436790     -0.01154160      0.01564400       8
H             -20.55720000    -16.00570000     36.16200000     -0.02762800      0.02135680     -0.02080870       1
H             -22.54830000    -14.18910000     34.31600000      0.00372857     -0.01472000      0.00689347       1
O              16.70670000     16.13360000     31.22320000     -0.08101850      0.03867320     -0.05646030       8
H              16.99700000     14.40640000     31.17520000      0.02121090     -0.04298070      0.00463212       1
H              15.18410000     16.24050000     29.75030000      0.05948010      0.00881325      0.04925530       1
O             -22.33600000     -1.12202000     35.24430000      0.06852510      0.01988050      0.05532510       8
H             -22.02690000     -2.87520000     35.54830000     -0.00320460     -0.01901950      0.00415093       1
H             -23.58230000     -0.92231800     34.13560000     -0.06673790     -0.00080559     -0.06713380       1
O              41.76350000      9.54087000     37.15520000     -0.05731440      0.12737200      0.00747331       8
H              42.67080000      8.35385000     37.92510000      0.05299920     -0.07276150      0.03751970       1
H              41.70490000     11.02500000     38.53480000      0.00086831     -0.04754340     -0.05167980       1
O              -8.26485000    -30.84650000     -6.78742000      0.00508587     -0.01151250      0.05015890       8
H              -7.59762000    -31.60770000     -4.75652000     -0.01880520     -0.00121530     -0.07733470       1
H              -8.77456000    -32.06630000     -8.19331000      0.02511700     -0.00023303      0.03639680       1
O              54.67040000    -19.45440000    -12.25760000     -0.03415910      0.00903969      0.02351800       8
H              55.88040000    -19.22580000    -10.88120000     -0.00271100     -0.00593238     -0.00708756       1
H              52.98070000    -19.84860000    -11.39360000      0.04188850      0.00191563     -0.02045070       1
O              11.32700000     -1.95714000     10.91580000     -0.06172950      0.09297350     -0.12375600       8
H              11.59110000     -2.71545000     12.37040000      0.00809017     -0.04021680      0.10977800       1
H               9.87350000     -0.56990600     10.86090000      0.05037460     -0.04773210      0.01537720       1
O             -35.65840000     -3.69112000     48.41090000      0.02959310     -0.05365540     -0.03978510       8
H             -34.82250000     -4.60750000     46.85860000     -0.03136680      0.04228940      0.04447100       1
H             -35.64750000     -5.17127000     49.59100000     -0.00380981      0.02707950     -0.00678316       1
O              12.35450000    -13.56330000     -7.62829000     -0.04013010     -0.00537494     -0.04970280       8
H              11.15010000    -12.28600000     -7.04784000      0.00127649     -0.00605653     -0.00370973       1
H              11.46660000    -14.26240000     -9.28378000      0.03575700      0.02265370      0.04694630       1
O              19.98220000     16.99290000     11.57170000      0.02212890     -0.03566110     -0.07280940       8
H              19.36820000     18.59330000     12.06320000     -0.00445942      0.03628940      0.00818659       1
H              20.25970000     17.00680000      9.62538000     -0.01256620      0.00253549      0.06509080       1
O              11.89230000     20.85400000     -8.44924000      0.01812310     -0.04051070      0.02399590       8
H              10.31860000     20.18270000     -7.72663000      0.00791411      0.00938265     -0.00321751       1
H              13.26640000     19.70570000     -7.64983000     -0.02935080      0.03683720     -0.01817680       1
O              23.51340000     47.15290000     30.75530000     -0.00854987      0.03353940     -0.04183510       8
H              21.81530000     47.41350000     31.30000000     -0.01246550     -0.00968959      0.01405190       1
H              23.44550000     48.27070000     29.14820000      0.02337360     -0.02815160      0.03625080       1
O              -6.41202000      8.40571000      2.29175000     -0.00305235      0.04849070     -0.00955962       8
H              -6.69898000     10.20100000      1.50874000     -0.00508837     -0.05167450      0.02381690       1
H              -7.48947000      8.23427000      3.77726000     -0.00154978      0.00020672     -0.02194150       1
O              16.51130000    -23.79890000     12.01700000     -0.02831370      0.00798148     -0.01227050       8
H              15.62120000    -23.50970000     10.32930000      0.01220740     -0.00794613      0.04489390       1
H              15.28860000    -23.71250000     13.48310000      0.01020430      0.00273281     -0.03147930       1
O              -0.71863100     15.60270000     40.17310000      0.03000710      0.01884760      0.00083381       8
H              -1.34326000     15.33000000     41.84540000     -0.01225630     -0.00791805      0.01204790       1
H              -2.03153000     15.67270000     38.97780000     -0.02458520     -0.00554851     -0.01466890       1
O              43.98430000     44.29460000      1.33691000      0.05009760      0.01738360      0.00183744       8
H              45.80600000     44.92250000      1.54877000     -0.03986450     -0.02488530     -0.01433480       1
H              43.17830000     44.77950000      2.84945000     -0.01212810      0.00444548      0.01360180       1
O              22.51340000     13.84800000    -29.37590000      0.02441830      0.00378563      0.02247990       8
H              23.84630000     13.04460000    -28.27150000     -0.03072070      0.00436217     -0.02768350       1
H              21.07040000     12.80350000    -29.79070000      0.00842033     -0.00270821      0.00397022       1
O             -17.16270000     43.60540000      3.35959000      0.06653160      0.03397950      0.03052830       8
H             -18.69460000     42.82960000      3.04449000     -0.04844640     -0.02659770     -0.00040858       1
H             -16.92240000     43.94540000      5.20968000     -0.01382020     -0.00693149     -0.03095260       1
O               8.15746000    -30.32450000     33.63950000      0.01702730     -0.00196611     -0.00513664       8
H               9.28600000    -31.78010000     33.62610000     -0.00563209      0.00466812      0.00548588       1
H               9.31883000    -28.97150000     34.22870000     -0.00867910     -0.00641882     -0.00020142       1
O               2.71650000     35.85670000      2.98800000      0.02791030     -0.00037678     -0.05380320       8
H               1.20410000     35.64240000      3.83730000     -0.03408770     -0.00014357      0.03714570       1
H               2.16446000     35.70920000      1.21699000      0.01499290     -0.00493046      0.00622322       1
O              -8.56932000     -9.62674000     14.40110000      0.01560540      0.01869120     -0.04777050       8
H             -10.05520000     -9.38770000     13.41070000     -0.02822220     -0.00873498      0.00259388       1
H              -7.43765000     -8.99113000     12.95880000      0.00180286     -0.01631260      0.03673230       1
O              -5.02208000      6.27178000     17.61970000      0.00980785      0.01633080      0.04521880       8
H              -3.49847000      6.02063000     18.79240000     -0.02605270      0.00279382     -0.02729710       1
H              -5.01516000      5.23531000     16.17690000      0.01024390     -0.01153370     -0.02055120       1
O              26.78160000    -14.45070000     -2.69651000     -0.02578000     -0.07936050     -0.03716610       8
H              25.57910000    -16.31880000     -3.30022000      0.03806510      0.06763020      0.02686930       1
H              28.35790000    -14.80850000     -3.65593000     -0.02712670      0.00822217      0.01578630       1
O              23.50180000      5.97944000     45.71860000     -0.00856674      0.05154520     -0.02086450       8
H              22.80160000      5.18603000     47.20910000     -0.00225899     -0.01466770      0.02030420       1
H              24.66140000      4.93986000     44.91630000      0.03373490     -0.02818640     -0.01082110       1
O              16.18060000     26.89690000     50.26300000      0.07765970      0.04693300      0.02789460       8
H              17.95010000     27.02910000     51.25770000     -0.07317070     -0.01354370     -0.04298340       1
H              15.41330000     25.32960000     50.49840000     -0.00416840     -0.03311360      0.00731564       1
O             -15.55260000     11.12050000     23.02850000     -0.03485440     -0.01797250      0.06725980       8
H             -14.30160000      9.80325000     22.84150000      0.00716014      0.00305595     -0.00449675       1
H             -16.20640000     10.80880000     24.93700000      0.02201870      0.01487270     -0.06146290       1
