192
TotEnergy=-1103.48624000 cutoff=-1.00000000 nneightol=1.20000000 pbc="T T T" Lattice="24.44621000       0.00000000       0.00000000      -0.00000100      24.44621000       0.00000000      -0.00000100      -0.00000100      24.44621000" Properties=species:S:1:pos:R:3:force:R:3:Z:I:1
O              19.17450000      3.57363000    -31.97350000      0.05921960      0.09356340     -0.04010650       8
H              17.95370000      4.73602000    -31.41100000     -0.03068980      0.00205492      0.00946878       1
H              19.08400000      1.92557000    -31.74480000     -0.02634110     -0.09725180      0.02502730       1
O              47.19390000     44.12580000     10.09470000      0.05142710      0.00233109     -0.07079310       8
H              49.05850000     43.66990000      9.97769000     -0.03029570     -0.00018940      0.01827600       1
H              47.18090000     44.45620000      8.12415000     -0.01519980      0.00240784      0.05919800       1
O              10.00930000      0.72959400     16.73050000     -0.08278420     -0.01589910      0.02891360       8
H               9.29677000     -0.69609800     17.88090000      0.02468800      0.04093430     -0.03969680       1
H               8.25843000      1.70127000     16.40370000      0.04950870     -0.02550900      0.01005540       1
O              -5.66944000    -10.74790000     -0.07420100     -0.03675450      0.00973620      0.01236410       8
H              -6.16453000     -9.04020000     -0.63496900      0.01891710     -0.01755930      0.00418875       1
H              -7.10487000    -11.27480000      1.07563000      0.02136840     -0.00146054     -0.01334600       1
O               8.72477000     32.02470000     21.66550000     -0.05904140      0.06962210     -0.00977934       8
H               8.33369000     32.19440000     23.44990000      0.01195910     -0.00739564      0.01297550       1
H               9.75359000     30.75220000     21.23190000      0.05275080     -0.06257990     -0.00737014       1
O              -1.18258000     13.51190000      8.37048000     -0.00206472     -0.00624975      0.01388170       8
H              -0.99095800     12.79190000      6.73651000     -0.01725880     -0.01023830     -0.02297320       1
H               0.34099700     14.43970000      8.36860000      0.01806450      0.02310150      0.01400390       1
O              38.42340000     23.92680000     12.60530000      0.02705560      0.00574355     -0.01584940       8
H              38.98480000     22.23830000     12.25680000     -0.00308985     -0.00155650     -0.00840926       1
H              37.02830000     23.75380000     13.67130000     -0.02514420     -0.00618960      0.02257600       1
O              -1.30747000    -24.47570000     12.84210000      0.03121920     -0.07877030     -0.02792560       8
H              -1.53601000    -26.44300000     12.13720000     -0.00431698      0.07505530      0.01713620       1
H              -2.82821000    -23.74550000     13.37030000     -0.02722630     -0.00072216      0.00483055       1
O              30.84710000    -34.48590000     16.91980000      0.02345030     -0.00522123      0.04472930       8
H              31.98650000    -35.03590000     18.32160000     -0.01115130     -0.01060000     -0.02046730       1
H              31.19400000    -32.72070000     17.14510000     -0.01342170      0.01531680     -0.01468990       1
O               6.59954000    -28.25490000    -27.10700000     -0.01312120      0.03029400     -0.02901950       8
H               8.37075000    -28.50960000    -26.81590000      0.00123964     -0.02313190      0.01311490       1
H               5.40057000    -29.10990000    -26.01670000      0.01573540     -0.00749922      0.01732660       1
O             -15.19990000      4.19647000      5.18591000     -0.08008470      0.06690520      0.03293130       8
H             -16.52490000      3.01507000      5.38557000      0.00767786     -0.02781820     -0.00847546       1
H             -13.59260000      3.77011000      4.81881000      0.07833450     -0.04431820     -0.02701110       1
O             -10.52080000     27.10430000     52.97370000      0.04201440     -0.02140410     -0.07246240       8
H              -9.94709000     26.31660000     50.96150000     -0.01689030      0.02692160      0.06481180       1
H              -9.01129000     28.20980000     52.99980000     -0.01976490      0.00006988      0.00684707       1
O              15.98330000    -28.95130000    -15.30810000      0.11547600     -0.04891940      0.01965860       8
H              16.98610000    -30.69410000    -15.49150000     -0.03254090      0.05934250      0.00900147       1
H              14.47480000    -29.44330000    -15.91030000     -0.08319820     -0.01875100     -0.02685010       1
O              27.96200000     17.25760000     33.62400000     -0.18031900     -0.05338950      0.06172410       8
H              29.03410000     18.02350000     32.75020000      0.13607700      0.09647120     -0.10867200       1
H              28.68530000     16.24590000     34.79870000      0.03543260     -0.04364360      0.04690530       1
O              -0.45790500      1.08420000     -2.60017000     -0.01459850      0.00411353     -0.00042927       8
H               1.24833000      0.94966300     -1.92495000     -0.00342602     -0.00361885      0.00176370       1
H              -1.44333000     -0.26181600     -1.80415000      0.01932440      0.00596892     -0.00109738       1
O             -25.79240000     23.15230000     30.01790000      0.07386990     -0.03455960     -0.09575270       8
H             -25.97820000     22.88490000     27.98240000      0.00662457      0.00891502      0.07565860       1
H             -27.32640000     23.63560000     30.56350000     -0.07734210      0.02592390      0.02000360       1
O             -29.86900000      9.44982000     20.44540000      0.00926691     -0.02553430      0.00141324       8
H             -31.16670000      8.38882000     19.65180000     -0.00365062      0.01199240     -0.00771145       1
H             -30.62990000     10.91670000     21.13040000     -0.00586598      0.01088220      0.00968377       1
O             -13.91040000     61.32290000    -20.13220000     -0.02332470     -0.04614160      0.03207300       8
H             -14.15590000     60.94450000    -18.24260000      0.01656990      0.02650880     -0.03352910       1
H             -14.90730000     59.85800000    -20.75390000      0.00713761      0.01873900     -0.01147450       1
O              66.34450000     22.63980000     41.22420000      0.01061250     -0.00974610      0.00232466       8
H              65.60470000     23.23500000     39.64900000      0.00012013     -0.00503539      0.00861729       1
H              67.33080000     21.03800000     40.83890000     -0.02081090      0.02442580     -0.00500648       1
O              54.34520000    -24.19150000      4.74587000      0.01806570      0.02924870      0.06838320       8
H              53.43250000    -22.70670000      5.40085000     -0.00154539     -0.01918250      0.01285040       1
H              53.76340000    -24.18970000      3.14882000     -0.01825710     -0.01083240     -0.08185350       1
O              35.30260000     18.66320000    -15.19590000      0.00750316     -0.05610650     -0.04052890       8
H              35.46150000     16.69580000    -15.16240000     -0.01035960      0.05111310      0.00433116       1
H              35.40590000     19.30570000    -13.54390000     -0.00579298      0.00238263      0.02955950       1
O              -9.55088000      7.10212000     61.99900000      0.03306750      0.02705140     -0.01124590       8
H             -10.61790000      6.03054000     61.03600000     -0.00643022     -0.01280310     -0.01385860       1
H              -7.73506000      7.18030000     61.37070000     -0.02655650     -0.01780840      0.00872445       1
O               4.78776000      0.83351600     -0.97928600     -0.00665137     -0.10007100      0.02353120       8
H               6.00868000     -0.44344100     -1.68954000     -0.02970760      0.00827917      0.01432120       1
H               5.36320000      2.26089000     -1.62324000      0.03020120      0.09328560     -0.03649530       1
O              44.96520000      4.75538000     24.12950000     -0.02172710      0.03047770     -0.03180600       8
H              44.41150000      6.14340000     22.90300000      0.01670890     -0.02950690      0.02444300       1
H              46.19440000      3.72143000     23.23910000      0.00428682      0.00193178     -0.00201120       1
O              -1.97171000     61.07310000     27.90900000     -0.11441300      0.01373180      0.02703070       8
H              -3.20410000     61.89400000     26.62470000      0.00631848     -0.01582370      0.03573090       1
H              -0.71358200     61.16250000     26.83500000      0.10720400      0.00203762     -0.06727200       1
O              10.50460000     37.79100000      9.25903000      0.01475170      0.00508897     -0.00968616       8
H               8.96908000     37.64100000     10.21700000     -0.00554625     -0.00143984      0.01477110       1
H              12.03480000     37.49130000     10.25700000     -0.01239200     -0.00301918      0.00517242       1
O             -18.70390000     19.93980000     16.70570000      0.05010160     -0.00671897      0.07796490       8
H             -20.15930000     20.80110000     16.34940000     -0.04758350      0.02708470     -0.01985170       1
H             -18.50730000     20.44540000     18.65330000     -0.00200792     -0.02053130     -0.04606340       1
O              32.17600000     32.60420000     50.94020000     -0.07381400     -0.02983350      0.01644650       8
H              32.59760000     31.13030000     52.03110000      0.00625675      0.01389350     -0.00990809       1
H              30.03470000     32.36230000     50.80580000      0.07033290      0.02556260     -0.00423766       1
O              15.31850000     31.56180000     17.74880000     -0.03332250     -0.04763870      0.03037360       8
H              14.87520000     31.39820000     15.74410000      0.00806380     -0.00279396      0.04779370       1
H              14.33470000     30.21310000     18.99900000      0.02793800      0.04414260     -0.05644780       1
O              -0.61901500    -27.33860000     24.73950000     -0.04373990     -0.03653270      0.00161657       8
H              -1.69264000    -28.89920000     24.51120000      0.00331779      0.03231810     -0.00465639       1
H               0.70877100    -28.12410000     25.61160000      0.04021600     -0.00615407      0.01308240       1
O               2.20800000     14.10480000      0.13389600      0.01403030     -0.09071000     -0.03278440       8
H               3.06388000     12.30860000      0.61625200     -0.03089170      0.06272070     -0.01482790       1
H               1.73109000     13.68460000     -1.83080000      0.02299750      0.02914530      0.05400370       1
O               4.97581000      2.89249000     16.45960000     -0.00689110      0.06068390      0.02817520       8
H               3.79283000      1.49954000     16.66170000     -0.00443471      0.00888686      0.00982296       1
H               4.39853000      4.60962000     17.70620000      0.01484280     -0.08018210     -0.03238940       1
O             -36.29870000     52.17870000    -28.53570000      0.00188567      0.05689360      0.01223830       8
H             -37.11630000     51.24630000    -29.77040000     -0.02188380     -0.02614250     -0.03858550       1
H             -35.55920000     51.08190000    -27.39580000      0.02237060     -0.02205240      0.02883620       1
O               2.18029000     51.80090000    -16.85360000     -0.09292320     -0.01640940     -0.16801500       8
H               2.81516000     51.80340000    -15.36680000      0.05361140     -0.00514851      0.14670900       1
H               0.83561900     50.45010000    -17.19650000      0.03281880      0.02827400      0.01657300       1
O             -33.22200000     35.87320000      3.47203000      0.03491280     -0.01691120      0.01012060       8
H             -35.12140000     35.87870000      3.25818000      0.03375170     -0.01956440      0.02120770       1
H             -32.01630000     34.36550000      4.12503000     -0.06773630      0.03619020     -0.02797470       1
O              23.09940000     34.94020000     13.10170000      0.02181410      0.01211410     -0.06213980       8
H              24.54550000     34.22810000     12.00890000     -0.00705806      0.00101042      0.03724100       1
H              22.93640000     36.35010000     11.80950000     -0.01238350     -0.01221800      0.02947310       1
O             -13.73180000    -20.34310000     10.61020000     -0.02235840      0.11063600     -0.07543560       8
H             -13.96900000    -20.34830000      8.67991000      0.00594753      0.00408230      0.04351010       1
H             -13.56100000    -21.94480000     11.00070000      0.01741380     -0.11183100      0.02951240       1
O             -45.26280000      5.99041000     20.40690000     -0.19343700     -0.00557575     -0.08373780       8
H             -46.39990000      7.36810000     19.36020000      0.04675870     -0.04411930      0.04841960       1
H             -43.76280000      6.49849000     20.77270000      0.14334900      0.06607450      0.03005330       1
O             -21.53780000    -14.97410000     35.05470000     -0.04147170     -0.00654464     -0.04104560       8
H             -20.47490000    -16.36370000     35.62980000     -0.00719017     -0.02080430     -0.01029300       1
H             -22.63100000    -15.45520000     33.46090000      0.04912380      0.00920686      0.04187980       1
O              17.69550000     14.31840000     32.81070000      0.02106530      0.00714273     -0.03098730       8
H              19.53790000     14.54400000     32.54550000     -0.01875480     -0.00550937      0.00832460       1
H              17.09490000     13.99250000     31.06170000      0.00023391     -0.00152855      0.02360270       1
O             -23.44520000     -1.01530000     41.95920000     -0.00288658      0.00823445     -0.01440530       8
H             -24.31430000     -0.13449400     43.45420000      0.01113480     -0.00782781     -0.03610000       1
H             -24.07380000     -0.64251100     40.15900000     -0.00523508      0.00003148      0.04365170       1
O              44.99830000      3.77168000     32.03940000     -0.02824040     -0.02413270     -0.06505920       8
H              45.31670000      4.12216000     33.68510000      0.01101490      0.02007700      0.06817700       1
H              43.47980000      2.69623000     32.05360000      0.01959180     -0.00065512     -0.00022021       1
O             -10.34420000    -33.00460000     -7.62982000      0.00302871      0.04464180      0.06635030       8
H              -8.60484000    -32.50560000     -7.25972000     -0.01678460     -0.00816894     -0.01532690       1
H             -10.42740000    -33.99060000     -9.04578000      0.01145320     -0.03314390     -0.05047840       1
O              54.11200000    -19.43820000    -12.82190000      0.03389270      0.00745331     -0.02293550       8
H              55.93980000    -19.53040000    -13.37070000     -0.03128660     -0.00086382      0.01509850       1
H              54.02220000    -20.28000000    -11.20970000      0.00089919     -0.00450939      0.01161690       1
O              17.72510000     -0.61104400      6.37233000      0.09054810      0.05271040     -0.00368453       8
H              16.36600000      0.02969000      5.58123000     -0.06609710      0.03306660     -0.03895470       1
H              17.24390000     -2.07424000      7.05994000     -0.02651840     -0.07920210      0.04522860       1
O             -37.74620000     -6.28065000     46.94150000      0.01382420      0.09145780     -0.01542730       8
H             -37.96020000     -7.77533000     46.11160000     -0.00515580     -0.05977010     -0.00604678       1
H             -37.60900000     -6.13110000     48.72150000     -0.00295932     -0.02798240      0.02544730       1
O               5.78331000    -11.05990000    -12.38950000     -0.04323750     -0.07738150     -0.06888440       8
H               6.13912000    -10.79160000    -10.71710000      0.01159780      0.00710193      0.05780230       1
H               4.76096000    -12.89390000    -12.54110000      0.03489240      0.08057240     -0.00165571       1
O              19.30330000     18.36890000     15.18420000      0.00828663     -0.01478560      0.02957160       8
H              19.76390000     18.42920000     13.46980000      0.00730242      0.00140305     -0.02100430       1
H              20.87620000     18.03050000     16.19000000     -0.01355470      0.01133590     -0.01438840       1
O              10.48310000     19.80630000    -10.05820000     -0.03446260      0.01985650      0.00796942       8
H              11.61980000     18.83180000     -9.13548000      0.02844640     -0.02264460      0.01698510       1
H               9.03028000     20.01830000     -8.88892000      0.00993170     -0.00110430     -0.02641530       1
O              25.08900000     57.03210000     30.07400000      0.16635200      0.02085220      0.00638829       8
H              23.55640000     57.50910000     30.04440000     -0.16374500      0.05541950     -0.01304330       1
H              25.12000000     55.33370000     30.15860000      0.00253831     -0.08646310      0.01225510       1
O              -6.42374000      6.29696000      4.13004000      0.00123880      0.01218140     -0.00788599       8
H              -5.65831000      5.79764000      5.76329000      0.01031300      0.00101294     -0.02255190       1
H              -5.22486000      6.22149000      2.69189000     -0.01004240     -0.00732735      0.02998990       1
O              15.54580000    -27.37580000     21.96300000     -0.02757660     -0.01874210     -0.06522570       8
H              14.14160000    -28.61340000     22.19880000      0.01343830      0.01404640      0.00249037       1
H              15.43850000    -27.17030000     19.98090000      0.01522850      0.00080714      0.05507490       1
O              -4.51506000     18.57520000     47.06460000     -0.03410820      0.00903419      0.02588200       8
H              -3.64638000     18.96030000     45.55950000      0.00983877     -0.00049961     -0.02371790       1
H              -6.13486000     19.55390000     47.04200000      0.02367070     -0.00598611     -0.00422798       1
O              36.07980000     42.01840000      3.15547000      0.03828820     -0.01094730     -0.03056150       8
H              34.84970000     42.51110000      4.25119000     -0.04222070      0.03173220      0.03518550       1
H              35.88340000     40.23680000      3.35948000      0.00505522     -0.01986490     -0.00556346       1
O              23.15300000     18.36440000    -30.69920000      0.06586740      0.01339220      0.01286600       8
H              24.09200000     16.72670000    -30.74860000     -0.00900126      0.02035980      0.01194780       1
H              24.62320000     19.66540000    -30.37940000     -0.05114450     -0.03117500     -0.01758700       1
O             -20.30750000     42.99510000      1.53211000      0.01769360     -0.06194360      0.06594540       8
H             -20.87490000     41.11000000      1.25449000      0.00576484      0.04448200     -0.00812446       1
H             -19.37670000     42.73540000      3.34212000     -0.02858150      0.02593740     -0.06700000       1
O               6.81524000    -28.94600000     30.47410000     -0.01221340     -0.03023650     -0.00883756       8
H               8.32697000    -29.30870000     31.35730000      0.01789100     -0.00127492      0.02022240       1
H               6.62297000    -27.18010000     30.38710000     -0.00595108      0.02596920     -0.00450520       1
O               2.81668000     33.33090000      1.20165000     -0.00410696     -0.01697820      0.03812700       8
H               2.20019000     32.29380000     -0.25346800      0.00176207      0.01104330      0.03891990       1
H               2.18302000     33.03160000      3.28314000     -0.00665618      0.00159347     -0.07401300       1
O              -9.84196000    -11.63970000     12.63640000      0.06004020      0.03374530     -0.04167760       8
H              -9.88586000    -13.34580000     13.04810000     -0.00525452     -0.04215200      0.01220300       1
H              -8.08062000    -11.49250000     11.72030000     -0.05974140      0.00295473      0.02220540       1
O              -4.38731000      6.36702000     12.21350000      0.04421950      0.05078350      0.02033040       8
H              -3.25268000      8.15761000     12.45190000     -0.03777110     -0.06195670     -0.00242975       1
H              -3.89366000      5.27511000     13.65820000     -0.01325760      0.01755770     -0.01172300       1
O              26.12510000    -10.26450000     -4.79385000     -0.02932460     -0.03241570     -0.03383830       8
H              27.63150000    -10.45630000     -5.94188000     -0.02327530     -0.00094564      0.01829690       1
H              24.68670000    -11.62480000     -5.28904000      0.05126890      0.02366550      0.00714785       1
O              23.63260000      9.93004000     42.86550000      0.06438980      0.01745790     -0.07765140       8
H              22.19490000      9.58876000     43.82950000     -0.04844330     -0.00802762      0.00171694       1
H              23.50070000     10.09150000     40.84600000     -0.01434680     -0.00715725      0.06893990       1
O              16.29220000     26.08900000     48.65510000      0.02854690      0.09744120      0.02955210       8
H              17.95830000     27.29040000     48.64560000     -0.04708680     -0.04010560     -0.00039640       1
H              16.53560000     24.54690000     47.93480000      0.01388850     -0.05934050     -0.02680340       1
O             -13.85450000     13.17790000     20.54420000      0.01723580      0.01465610     -0.02205970       8
H             -12.41740000     12.92160000     19.45500000      0.00729250      0.03116090     -0.01296100       1
H             -13.84040000     11.46010000     20.90170000     -0.02805770     -0.04608700      0.03167430       1
