192
Lattice="24.53128 0.0 0.0 0.0 24.53128 0.0 0.0 0.0 24.53128" Properties=species:S:1:pos:R:3:force:R:3 TotEnergy=-1103.41436 cutoff=-1.0 nneightol=1.2 pbc="T T T"
O        1.53302000      22.85582000      14.83326000      -0.09357080      -0.00700549       0.01565050
H       23.97760000      22.56242000      14.90856000       0.07377810       0.00546078       0.00680629
H        2.20602000      21.20821000      14.43726000       0.01156980      -0.00097923      -0.01741270
O       23.90782000      22.66572000      22.56786000       0.04604910      -0.00999338      -0.04262920
H       23.98632000      24.35492000      23.22689000      -0.00579606      -0.00389392       0.00675344
H        0.85434000      22.67912000      21.17349000      -0.03972780       0.00489550       0.04007160
O       13.30750000       2.65471000      16.51280000      -0.00076931       0.01462640       0.00534617
H       13.90930000       3.24310000      18.24100000      -0.00228973      -0.01763890      -0.02324190
H       12.61410000       0.96004200      16.63490000       0.00454307      -0.00042989       0.00985103
O       21.04127000      13.21948000      21.72287000       0.00419610       0.03844430       0.07535090
H       20.56770000      13.15678000      20.03451000      -0.01556790       0.01099030      -0.03571120
H       20.64276000      14.99435000      22.66614000       0.00771457      -0.04085270      -0.03870050
O        4.64933000      10.48832000      17.08960000       0.03034580      -0.01518790      -0.05398270
H        6.12497000      10.79172000      18.18530000      -0.00522194      -0.01587210      -0.01702670
H        5.21726000       9.72762000      15.22000000      -0.00648313       0.02311470       0.05928860
O       18.99262000      10.88260000       7.76392000      -0.00962449      -0.03508680      -0.00769592
H       18.20128000      12.40270000       8.26005000      -0.00776277       0.02112670      -0.00199369
H       17.76927000       9.94903000       6.64661000       0.01624310       0.01242520       0.01183180
O       20.23452000       4.19742000      13.79920000       0.02752330       0.10753900       0.05011100
H       22.01462000       4.01862000      14.00250000       0.02799560      -0.00753134      -0.00135172
H       19.59772000       2.80682000      13.13920000      -0.04978990      -0.09825540      -0.04588530
O        2.35892000      14.40686000       7.01802000       0.02465570      -0.03802280       0.00442395
H        3.44721000      14.68116000       8.43482000       0.01589190      -0.01410950      -0.00002048
H        1.35125000      15.83126000       7.20354000      -0.03563480       0.04177610      -0.00882938
O        8.17312000      15.63666000      18.38460000      -0.01432310      -0.04319980       0.03121040
H        6.48272000      15.28056000      17.74380000      -0.00187856       0.02800100      -0.01565930
H        8.06832000      14.12786000      19.54710000       0.03038280       0.02119610      -0.01087550
O        9.48230000      22.77326000      24.28496000       0.11428800       0.03122800      -0.04400650
H       11.08230000      22.03216000       0.59408000      -0.02447920       0.02218060      -0.04101470
H        8.47249000      22.05186000       0.82408000      -0.10707800      -0.05177390       0.08647870
O        9.85048000       3.98045000       8.83562000      -0.10165600      -0.02327240       0.11890500
H       11.06818000       4.34572000       7.80075000       0.09891220       0.03050770      -0.09031000
H       10.24618000       4.80597000      10.51450000      -0.00171612      -0.00820902      -0.02309350
O       12.19818000       5.15722000       4.39964000      -0.03735280      -0.03067670      -0.05127700
H       10.36468000       5.72202000       3.98054000       0.04480080      -0.01691760       0.00408054
H       12.59078000       3.64982000       3.08254000      -0.00757766       0.04668380       0.03920130
O       12.11630000      16.23136000       7.35538000      -0.01605330      -0.05297720      -0.02296630
H       11.42610000      15.15796000       5.80428000       0.02592770       0.02924410       0.06155350
H       12.43750000      15.03476000       8.81958000      -0.01119120       0.02550040      -0.03842010
O        3.68232000      15.33390000      16.07882000       0.10846300      -0.03211900      -0.03942230
H        2.21532000      15.82840000      16.64402000      -0.10841300       0.02870540       0.04225170
H        3.92322000      13.50950000      16.30942000      -0.01331330      -0.00393396      -0.00232555
O       23.16818000       1.81777000       1.59825000      -0.04133910       0.01063760      -0.04236340
H       24.17666100       0.97145300       2.68802000       0.04295120      -0.04662090       0.04162810
H       23.28594000       3.48438000       2.24499000       0.00140105       0.03067730       0.00084597
O       16.18836000      23.95150000       7.88962000      -0.06456000      -0.08803520       0.08690600
H       16.49166000       0.79102000       7.04192000       0.03641490       0.10930300      -0.07731860
H       14.51906000      24.38620000       8.66262000       0.02371130      -0.02066790      -0.01167220
O       16.74516000      10.96170000      24.42510000       0.04477630       0.03210300       0.03330090
H       15.50266000      10.45670000      23.29440000      -0.01480620      -0.01004050      -0.03980590
H       18.33256000      11.64490000      23.63580000      -0.02830310      -0.01866860      -0.00201999
O        4.74458000      15.39374000       2.45638000       0.02760530      -0.03565600      -0.07118400
H        3.69678000      14.94654000       3.80838000      -0.01626130      -0.01799120       0.03498770
H        5.06938000      13.72394000       1.37058000      -0.01212500       0.04689440       0.03756060
O       21.03504000      21.19950000      15.95672000       0.00088211       0.00778134      -0.01933570
H       19.72044000      22.34150000      15.52272000      -0.00301838       0.02241830      -0.03682030
H       20.08924000      20.88180000      17.44832000       0.00780957      -0.02964290       0.04662780
O        7.25264000       6.36068000       2.57198000      -0.01593330      -0.04907830       0.02470310
H        6.20544000       5.16518000       3.95843000       0.03251340       0.03358000      -0.05995260
H        7.97494000       5.32178000       1.00339000      -0.02015510       0.00920328       0.03612670
O        4.86222000      19.61980000      13.34628000      -0.01912750       0.06702160       0.02325330
H        5.59752000      19.64390000      11.77538000       0.02258710      -0.01126800      -0.04237230
H        4.73662000      18.09580000      14.12218000       0.00514210      -0.06498450       0.01606260
O       10.93148000       6.06800000      13.47714000       0.00440799      -0.04832790       0.01052500
H       11.65588000       7.73753000      13.75034000       0.01234480      -0.01551760       0.01250830
H       11.80418000       4.49515000      14.54834000      -0.01388930       0.05955120      -0.01643870
O        9.12169000       3.51169000      23.38376000      -0.02566680      -0.01325210      -0.02243300
H        8.00663000       3.70367000      21.78510000       0.02583460      -0.01664440       0.04742760
H        9.11139000       1.71676000      24.07640700      -0.00306963       0.02999800      -0.02665920
O       18.04672000       3.11383000       4.47922000      -0.01753720      -0.01323840       0.01940870
H       18.18112000       4.90032000       4.60282000      -0.00438425       0.01852120      -0.00401423
H       19.35502000       2.55056000       3.44332000       0.03771610      -0.00757215      -0.01527390
O       23.87933000       9.57294000       7.27462000      -0.03784370      -0.10486200       0.00854238
H       22.18078000       9.91044000       7.80162000      -0.01439100       0.00698682      -0.00271557
H        0.14945900      11.01104000       7.04532000       0.05680120       0.10027300      -0.01061150
O       10.64680000      14.51562000      13.33680000       0.05436070      -0.00142297       0.00752610
H        9.44807000      14.12082000      12.08150000      -0.03602150       0.00324680      -0.00075354
H       10.14470000      14.92202000      15.02680000      -0.02187840      -0.00110016      -0.00488678
O        7.90228000      20.53200000      19.55970000       0.01677090      -0.06337240       0.04741310
H        8.03178000      18.57740000      19.88790000      -0.01241850       0.03225310      -0.04675570
H        8.40378000      20.67300000      21.33870000       0.00212845       0.03761070      -0.00366654
O        5.28542000      10.45262000       0.04804000      -0.01003720      -0.01513930       0.01681030
H        5.55262000       8.82652000       0.97854000       0.01366500       0.01775710      -0.00343359
H        3.44212000      10.31672000      24.38192000       0.00300102       0.00376943      -0.01563070
O       13.97650000       8.80902000      20.03620000      -0.06361800      -0.02016070       0.09882200
H       14.86680000       9.16252000      18.70410000       0.06238290       0.04680390      -0.11050100
H       14.39480000       7.06942000      20.15000000      -0.00097823      -0.02593000       0.02007500
O        3.25507000      23.36296000      19.41210000       0.00332156      -0.03116000      -0.03503960
H        2.41948000      22.80266000      17.58820000       0.02493510       0.02591160       0.03779300
H        4.71902000      22.21946000      19.71120000      -0.01882950       0.01169740      -0.00952277
O        0.20231000      18.63890000       1.25321000      -0.04023560      -0.08554650       0.07604860
H        1.42942000      17.36020000       1.05715000       0.01787510      -0.01580030      -0.00403939
H        0.49116400      19.86090000       0.16907400       0.02066640       0.10430700      -0.07735900
O        0.85398800       3.36601000      14.13070000       0.00649001      -0.01202880      -0.01250980
H        1.15678000       4.24264000      12.53130000       0.00441985      -0.00546993       0.00482632
H        1.51713000       1.60322000      13.93830000      -0.01163800       0.02486490       0.00507918
O       15.76646000       3.64004000      20.90786000      -0.08447350      -0.01977200       0.05897710
H       17.50826000       3.40394000      20.69406000       0.04032760      -0.00781430      -0.00779509
H       15.05336000       2.71584000      22.57336000       0.03336080       0.03560650      -0.05162220
O        4.50616000       3.41764000       6.20998000       0.02817840      -0.01463730       0.01433320
H        5.92760000       3.57914000       7.49798000      -0.02595730      -0.01902580      -0.03009810
H        3.78335000       1.62884000       6.05668000       0.01485810       0.01970090       0.00478627
O        9.60216000      11.49572000       4.42449000       0.02839960      -0.02942880       0.03467950
H        9.18826000       9.68062000       4.48829000      -0.00072363       0.02505890      -0.01053720
H        8.56806000      12.30192000       3.26287000      -0.02733810       0.00677938      -0.02383650
O       13.82330000      10.33092000      14.85660000      -0.05898810       0.01062840       0.03607300
H       15.23470000       9.97672000      13.95770000       0.06477870      -0.01919810      -0.03912050
H       12.94240000      11.66382000      14.01270000      -0.00587898       0.01305940      -0.00127151
O        7.12208000      13.36928000       9.53345000       0.07269590      -0.02639130      -0.03620790
H        8.63448000      12.75388000       8.41027000      -0.04807360       0.03623750       0.01458990
H        6.96228000      11.68248000      10.15490000      -0.02694340      -0.01496200       0.02212350
O        5.12266000       3.70740000      19.23810000       0.00478240       0.04273430       0.02428500
H        5.05976000       1.93014000      19.11530000      -0.00286921      -0.02900640      -0.01862350
H        5.92856000       4.66928000      17.94210000       0.00063312      -0.01349050      -0.00953216
O        2.20888000       5.96698000       9.55382000      -0.07262430       0.07950940       0.02528460
H        2.80848000       4.90808000       8.36462000       0.03591110      -0.05819190      -0.05442170
H        0.90848000       6.94118000       8.37282000       0.03590930      -0.00932653       0.05022320
O       16.11070000      16.04630000       2.28382000      -0.00014246       0.03754980      -0.06526720
H       16.02700000      15.81000000       3.97442000      -0.00098610      -0.01803050       0.06627120
H       15.85450000      14.55580000       1.32322000      -0.00344089      -0.02658090       0.00144432
O        2.38598000      23.01105000       5.46182000       0.11869000       0.05224010      -0.06080790
H        4.25868000      22.02948000       4.89562000      -0.07806490      -0.00052157       0.01008750
H        1.00448000      22.48417000       6.29182000      -0.04695070      -0.04710810       0.03954870
O       18.52612000       8.85760000      13.06432000       0.03298210      -0.03536710      -0.01933990
H       19.34172000       6.86685000      13.54002000      -0.02489160       0.05795570      -0.02535420
H       19.11262000       9.42849000      11.32472000      -0.01311040      -0.02183390       0.03423120
O       18.07740000      19.89086000      19.97065000      -0.03657910      -0.03841010      -0.01939940
H       18.77265000      19.16406000      21.50550000       0.01147580       0.00559410       0.00576605
H       17.23013000      18.32016000      19.19557000       0.02252970       0.03848760       0.00726648
O        6.16094000       8.59208000      12.21718000      -0.03151690      -0.04370410      -0.03464990
H        7.66634000       7.49648000      12.18198000      -0.01158200       0.00925483       0.00925179
H        4.77134000       7.49998000      11.15858000       0.03444000       0.03815200       0.03242070
O       11.55150000      23.56548500      11.18240000       0.04015560      -0.07411590      -0.02886550
H       10.87590000       0.54572300      10.94750000      -0.04255290       0.09548040      -0.02785260
H       11.27200000      23.30731000      12.88380000      -0.00197126      -0.02193740       0.05147180
O       13.82456000      20.49757000      24.44322000       0.02007800      -0.01479600       0.00328444
H       15.07356000      20.42056000      23.11672000      -0.00204108       0.01154200      -0.01077320
H       14.44186000      19.11170000       0.93324000      -0.00553705       0.00050317       0.00890245
O       16.10210000      16.28590000      16.70422000      -0.01369440      -0.06391320      -0.00144420
H       14.23940000      16.14274000      17.14655000       0.04905380      -0.01197660      -0.01594240
H       16.91370000      14.44028000      16.31318000      -0.03747000       0.07019650       0.02133280
O       21.24360000      16.58080000      12.05250000      -0.01085290       0.08851990      -0.05002930
H       20.85400000      18.35400000      12.71000000       0.01154850      -0.05129720      -0.00374373
H       21.22390000      15.40460000      13.29410000      -0.00106673      -0.03946370       0.06131410
O       11.74310000      22.29410000      16.46368000      -0.00095419      -0.10198500       0.05195030
H       10.45990000      21.46330000      17.86771000       0.01983560       0.03833680      -0.04338200
H       12.87160000      20.64510000      16.46638000      -0.02660160       0.06502780      -0.01099450
O       23.96580000      18.24862000       6.37702000      -0.03180310      -0.01957360      -0.06866290
H       22.56560000      17.10482000       6.90612000       0.01627050       0.02530710      -0.00933276
H       23.93740000      18.22042000       4.25682000       0.00173100       0.00873146       0.08356500
O       16.20311000       8.27575000       4.31802000       0.00936729      -0.02514290       0.07481570
H       16.19394000       8.83986000       2.73891000       0.03900350       0.05751970      -0.09898280
H       14.60137000       7.56460000       3.99518000      -0.03922850      -0.03433270       0.03267250
O       17.61210000      24.50156000      12.83650000      -0.02144230       0.01244670       0.01553930
H       17.18620000       0.03268000      11.05110000       0.00322251      -0.01062100      -0.00269264
H       16.03530000       0.47018000      13.70130000       0.02071020      -0.00486806      -0.00791832
O       20.43284000      12.32780000      16.13962000      -0.14841800       0.07739500      -0.08872770
H       21.60529000      11.38610000      16.72182000       0.12090500      -0.09685150       0.05088890
H       19.49459000      11.13930000      14.77312000       0.02922550       0.01719730       0.03733420
O       19.85012000      17.76222000      24.06242300       0.05105320      -0.00308547       0.02390800
H       21.81152000      18.33352000       0.14998000      -0.07474260      -0.02526310      -0.00761715
H       18.55482000      17.12852000       0.82045000       0.03523030       0.01746370      -0.00891142
O        0.07112000       8.92759000      15.88756000       0.04957360       0.11457800       0.02510250
H        1.79182000       9.01560000      16.78466000      -0.03608730       0.02893230      -0.01781040
H        0.15212000       7.29557000      15.98956000      -0.02113190      -0.14474900      -0.00502831
O        6.18398000      20.32352000       3.82154000       0.02328410       0.04773670       0.03835370
H        5.51618000      18.63592000       3.48416000       0.00935815       0.00103621       0.01628100
H        7.01218000      20.78372000       5.62957000      -0.01678260      -0.04860480      -0.04329560
O        8.19425000      19.87346000       8.63622000       0.07368190       0.01045340      -0.00495326
H        9.58297000      18.59936000       8.10892000      -0.03816840       0.01953120       0.01271090
H        9.42713000      21.23376000       9.28782000      -0.03340340      -0.02448300      -0.00679117
O       23.26082000       6.48892000       3.06619000       0.02131190      -0.05109910       0.14514400
H       24.04042000       7.55352000       4.53707000      -0.02914170      -0.03504140      -0.03030500
H       23.32899000       7.64632000       1.92146000       0.00194382       0.09473100      -0.11630100
O       17.75445000      16.09893000       8.28799000       0.04535140      -0.04555660      -0.03594760
H       16.30167000      16.99331000       8.32458000      -0.05527240       0.03782160       0.00998973
H       18.55258000      15.99037000       9.87995000       0.01342770       0.01271340       0.02437010
O       20.31782000       3.62088000      18.97080000      -0.01064880      -0.00191521      -0.02032490
H       21.73915000       4.37428000      19.96740000      -0.01332630      -0.00756574      -0.04626760
H       20.05729000       3.71045000      16.99790000       0.02580640       0.01075380       0.06557450
O        0.49332000       9.76728000      23.05663000      -0.01689830       0.00446290      -0.02884110
H        0.23542000       8.41978000      21.76608000       0.00798172       0.01104480       0.02428240
H       24.16130000      11.25588000      22.31851000       0.00282956      -0.01634130       0.01292310
O        0.51712000       4.83485000      21.05512000       0.04089770       0.02591190      -0.04164450
H        0.18422000       3.39492000      21.98682000      -0.00429883      -0.03037140       0.02558250
H        2.18252000       4.44472000      20.08712000      -0.03723250       0.00794613       0.02303520
O       14.57930000       1.69182000       1.36764000       0.02251090      -0.05169570       0.00570747
H       16.22470000       1.79632000       2.57144000      -0.05375050       0.00290348      -0.03159840
H       14.23690000      24.37770000       0.84704000       0.01493240       0.04878040       0.02125430
O        8.89348000      10.90950000      20.50580000      -0.02193070       0.07010840      -0.05764970
H       10.44098000      10.17520000      20.37740000       0.05810700      -0.03658970       0.00053485
H        7.78718000      10.31000000      21.64700000      -0.04048760      -0.03553570       0.06435970
