192
TotEnergy=-1103.33832000 cutoff=-1.00000000 nneightol=1.20000000 pbc="T T T" Lattice="24.20004000       0.00000000       0.00000000      -0.00000100      24.20004000       0.00000000      -0.00000100      -0.00000100      24.20004000" Properties=species:S:1:pos:R:3:force:R:3:Z:I:1
O              22.88740000     -4.46059000    -30.13630000      0.08543740     -0.03270020      0.07703620       8
H              22.01320000     -4.23633000    -31.51640000     -0.09042640      0.02865650     -0.10045000       1
H              23.98130000     -5.83727000    -30.77060000      0.00381832      0.00683725      0.02786020       1
O              46.85180000     44.43920000     -0.84264600     -0.01315080      0.04121380     -0.01813100       8
H              46.91610000     46.30950000     -0.69015800      0.00181984     -0.01697970      0.02381840       1
H              46.51010000     44.55850000     -2.67101000      0.01034240     -0.02802180      0.00269869       1
O              10.76770000      2.95303000     14.16680000     -0.03283340     -0.05986810      0.04790820       8
H              11.69810000      3.23704000     15.90340000     -0.01595140      0.00092633     -0.02973650       1
H               9.49668000      1.33505000     14.51820000      0.05862420      0.05935790     -0.01557260       1
O              -4.37885000    -11.58440000     -0.99716400      0.00530294      0.01249520     -0.02623210       8
H              -3.81059000    -12.02270000     -2.83346000     -0.01661590      0.01222320      0.03959370       1
H              -4.95852000     -9.78245000     -0.92507900      0.00812856     -0.02114800     -0.01097800       1
O               4.72149000     32.34350000     19.24340000     -0.07534250      0.02047540     -0.02451840       8
H               5.61187000     32.40780000     20.74310000      0.04414250     -0.01776790      0.02813700       1
H               5.13995000     31.52100000     17.72990000      0.03658940     -0.00333323     -0.00809354       1
O              -4.68451000     11.54780000      8.35436000     -0.02106810     -0.01937970     -0.00559991       8
H              -5.88847000     10.27790000      7.51931000      0.04300140      0.02839470      0.00488045       1
H              -3.11800000     11.96150000      7.47950000     -0.01831820     -0.01597280     -0.00726377       1
O              45.26920000     25.76320000     12.06730000     -0.00542807     -0.04892030     -0.04505040       8
H              47.01280000     25.43520000     12.67130000     -0.01268540      0.00608138     -0.01717600       1
H              44.89610000     24.66670000     10.30130000      0.01734320      0.04312460      0.05386660       1
O              -0.95744900    -29.34070000      8.30233000      0.02991230     -0.02267130      0.03729150       8
H              -0.39667200    -29.38020000      6.62524000      0.01276150     -0.01045720     -0.03670240       1
H              -2.17143000    -28.09650000      8.40082000     -0.03627580      0.03408490     -0.00101217       1
O              32.07750000    -34.42370000     22.24750000     -0.02454770     -0.01984880     -0.04226930       8
H              32.72250000    -33.08740000     23.14090000      0.02292680      0.03144170      0.02958930       1
H              32.33270000    -36.05350000     22.95170000      0.00172819     -0.01009840      0.01664270       1
O               9.70117000    -28.41530000    -25.70700000     -0.05031770     -0.01998990      0.09404590       8
H              11.21160000    -28.27630000    -26.53750000      0.06551530      0.00493461     -0.02606040       1
H              10.10150000    -28.91640000    -23.74720000     -0.01288470      0.00785128     -0.06460120       1
O              -8.50723000      3.04526000      6.02788000     -0.02570470     -0.02220460      0.05699250       8
H              -9.74239000      2.79846000      4.73139000     -0.00631238      0.00298804     -0.00701461       1
H              -9.45928000      2.46510000      7.73184000      0.04268060      0.03416300     -0.05532290       1
O             -12.85980000     27.01930000     51.23930000     -0.00689889     -0.02161900     -0.06516520       8
H             -14.56420000     27.19840000     51.81910000     -0.01136210      0.00358593      0.01410980       1
H             -13.20790000     26.43800000     49.39920000      0.01985020      0.01861270      0.05137850       1
O              15.33640000    -28.04330000    -15.17990000     -0.00306330      0.00333797     -0.01395530       8
H              15.45050000    -29.92290000    -15.60350000      0.00661330      0.03345730      0.03547390       1
H              15.32630000    -27.34650000    -13.46030000      0.00074901     -0.03293630     -0.01493520       1
O              30.10030000     14.44490000     38.34570000      0.07945690      0.05111420      0.06020050       8
H              29.45730000     13.03190000     37.55090000     -0.01717700     -0.05085540     -0.02820220       1
H              31.81220000     13.97520000     39.22020000     -0.04591940      0.00328048     -0.01903950       1
O              -1.52905000      1.40474000      0.32706600     -0.00247879     -0.00418892      0.00892962       8
H              -1.14348000      1.97635000      2.06988000      0.00087208      0.00118501     -0.01792850       1
H              -0.46557700      2.23513000     -0.89824000     -0.00072709      0.00622100      0.01258960       1
O             -28.47530000     23.26390000     31.83250000     -0.00307640      0.03390110     -0.03906640       8
H             -28.72930000     24.51760000     30.38670000      0.01452590     -0.02279500      0.03950590       1
H             -30.16550000     22.68020000     32.04990000     -0.01522910     -0.01342730      0.00675501       1
O             -33.01310000     11.29280000     24.50390000     -0.01068420     -0.01504940     -0.03068760       8
H             -33.98220000     10.59950000     22.99310000      0.02000440      0.00960311      0.03352790       1
H             -31.16830000     11.35790000     23.94070000     -0.02004230      0.00719933      0.00268346       1
O             -18.55680000     63.83590000    -19.70290000      0.01688370      0.01049960     -0.02718560       8
H             -17.90420000     62.74860000    -18.37610000     -0.00890524     -0.00787890      0.00963444       1
H             -18.22150000     62.90790000    -21.26780000     -0.01199770     -0.00065848      0.01282120       1
O              68.29260000     20.98520000     38.73360000      0.03989440      0.01642730     -0.01197080       8
H              68.97270000     22.52100000     37.86490000     -0.02738970     -0.01780530      0.01053420       1
H              66.52770000     20.81230000     38.57600000     -0.01893340      0.00505640     -0.00168717       1
O              54.47290000    -21.28280000      4.01954000      0.05701500      0.04820540     -0.08401540       8
H              53.64700000    -22.11790000      5.23480000     -0.04486410     -0.04059660      0.07450240       1
H              54.46450000    -22.29840000      2.51461000     -0.00106129     -0.00087251     -0.00605398       1
O              31.31110000     18.19600000    -13.32690000     -0.12710600      0.01756790      0.11582900       8
H              32.65340000     17.94620000    -14.23140000      0.10865300     -0.03732470     -0.06131250       1
H              30.81840000     16.94920000    -11.85630000      0.02705760      0.01136580     -0.04800140       1
O             -16.52670000      7.54909000     63.26830000     -0.04828220      0.04542460      0.01559730       8
H             -15.23180000      8.77789000     63.54780000      0.00703998      0.00712059     -0.00286488       1
H             -15.73890000      6.09722000     62.82450000      0.04030980     -0.05844220     -0.01860520       1
O               7.12847000      0.39918000     -0.69216800      0.01172120      0.05735220      0.03164330       8
H               5.99872000     -0.48906500     -1.60593000     -0.06758540     -0.02081450     -0.04602590       1
H               8.20005000     -0.96400100     -0.58003500      0.05488880     -0.03669190      0.01205790       1
O              42.16940000      4.67600000     24.60680000      0.02709990     -0.03717760      0.01126690       8
H              41.90110000      5.80024000     26.07300000      0.00630321     -0.01786720     -0.00882941       1
H              43.29620000      3.11256000     25.03350000     -0.03068680      0.05741520     -0.00471271       1
O              -1.42152000     61.40520000     27.48170000     -0.01389870      0.02799280      0.00582359       8
H              -2.78492000     60.68570000     26.50710000      0.00502896     -0.00529517     -0.00810523       1
H              -1.83486000     63.24490000     27.37460000      0.02088500     -0.03011090      0.00504702       1
O              11.46450000     38.56040000      9.75791000      0.00706703      0.00567941     -0.05533480       8
H               9.82266000     38.22400000      8.82614000      0.03956820     -0.00281743      0.01714280       1
H              12.95950000     38.79410000      8.45317000     -0.04509280     -0.00973936      0.04480010       1
O             -17.95470000     20.14440000     18.92620000      0.00060355      0.00846385     -0.00644794       8
H             -19.16260000     18.80950000     18.55590000      0.00902963     -0.00328198      0.01698110       1
H             -16.91900000     19.95170000     20.47410000     -0.01269470     -0.01238950     -0.01206490       1
O              30.24960000     32.43810000     52.54770000     -0.02215170      0.08094050     -0.03589130       8
H              30.20470000     30.68880000     52.46160000     -0.01128880     -0.04478830     -0.00459314       1
H              29.03160000     33.41530000     51.22730000      0.03121300     -0.03257870      0.03985580       1
O              12.35410000     32.86280000     20.69700000     -0.02346420     -0.02572800     -0.06521730       8
H              11.21770000     34.04760000     19.80950000      0.01043050     -0.00470804      0.01326010       1
H              12.36540000     31.49470000     19.21520000      0.01813890      0.03096140      0.05307460       1
O               2.43754000    -24.71270000     18.24780000     -0.14062000      0.08932490     -0.01732990       8
H               0.59610500    -25.33390000     17.79850000      0.07118740     -0.00563686      0.02353320       1
H               3.68762000    -25.81330000     18.27200000      0.07250060     -0.08871590      0.00242259       1
O               0.99724400     17.62050000      3.60008000      0.00816056      0.03213510     -0.04808040       8
H               2.81541000     17.01250000      3.52874000     -0.03920610      0.01298650      0.00205963       1
H               0.50227900     18.68830000      2.00848000      0.02290960     -0.03622310      0.04426370       1
O               1.89453000      0.93341800     13.26840000     -0.03815550      0.09083940      0.08308500       8
H               2.44758000     -0.45983400     12.51230000      0.03717620     -0.08559210     -0.04480990       1
H               2.19702000      0.77157200     15.12050000      0.00111060     -0.00546973     -0.02324290       1
O             -34.62500000     52.85370000    -30.52960000      0.03400280     -0.02245690     -0.03649700       8
H             -33.06070000     52.55840000    -31.75700000     -0.03335140      0.01640660      0.03515250       1
H             -34.35360000     51.62390000    -29.13640000     -0.00380869      0.00988952     -0.00363004       1
O               3.55123000     50.30260000    -16.34490000      0.00562537     -0.01859050      0.06282710       8
H               3.91092000     51.70720000    -14.94630000     -0.01969890     -0.04687970     -0.03933840       1
H               3.53896000     48.52650000    -15.45770000      0.00679352      0.05423490     -0.02006890       1
O             -33.79930000     40.25700000      3.00688000     -0.03528360     -0.03623750      0.01784840       8
H             -33.75830000     38.43560000      2.48463000      0.00131783      0.02577460     -0.00288808       1
H             -35.57140000     40.44780000      3.74596000      0.03681430      0.00658939     -0.02387970       1
O              20.20470000     36.26100000     13.78810000     -0.03246380     -0.04411620      0.10631300       8
H              21.21510000     37.51270000     13.30580000      0.06021310      0.07058950     -0.03666450       1
H              19.46290000     35.52060000     12.45510000     -0.02819540     -0.03093220     -0.06825910       1
O             -17.11000000    -12.34200000      7.78967000     -0.02791360     -0.07269680     -0.00563204       8
H             -16.89240000    -13.63120000      6.34886000     -0.00337839      0.02589880      0.02598430       1
H             -18.34960000    -13.46520000      8.86638000      0.03398740      0.05180100     -0.02561230       1
O             -47.37240000      4.06237000     20.12190000     -0.01953690      0.00047496      0.01505620       8
H             -46.51020000      2.53276000     20.03160000      0.01098330     -0.04541870     -0.00353458       1
H             -46.16640000      5.07451000     19.33910000      0.01927880      0.04055080     -0.00675415       1
O             -20.75990000    -12.98510000     35.68800000      0.02565160     -0.00162419     -0.00408897       8
H             -21.27010000    -14.68870000     35.89290000     -0.01580230     -0.00939771      0.00405055       1
H             -22.08350000    -11.78950000     35.87250000     -0.02431180      0.00505268     -0.00299267       1
O              16.32640000     15.32770000     32.02750000     -0.06791200      0.06360920      0.00765642       8
H              17.54190000     14.14430000     32.18350000      0.06293290     -0.06057270      0.01922380       1
H              16.10830000     15.54780000     30.27380000     -0.00356811      0.00543139     -0.03033560       1
O             -20.77900000     -2.76088000     34.62180000     -0.11808100      0.07488220     -0.04968540       8
H             -19.73570000     -3.97599000     35.08040000      0.07018180     -0.08255890      0.01679380       1
H             -22.39370000     -3.48807000     33.79520000      0.03789070      0.00404375      0.02052530       1
O              40.45620000      7.61365000     35.93910000      0.02461790      0.12622300      0.01503910       8
H              39.77680000      6.29965000     35.23550000     -0.04926800     -0.10957300     -0.05859670       1
H              41.23820000      7.08234000     37.40560000      0.02664760     -0.02177010      0.03706650       1
O              -8.83141000    -33.70940000     -9.52295000      0.05036380      0.08862140      0.06453590       8
H              -7.09436000    -34.22320000     -9.52846000     -0.00142706     -0.01105550     -0.00579212       1
H              -9.88344000    -34.70620000    -10.35060000     -0.05327850     -0.07226830     -0.05248210       1
O              51.39950000    -18.75740000    -12.62060000      0.07713050      0.08788830     -0.04066960       8
H              52.77890000    -18.30370000    -11.45590000      0.00685190      0.01353590     -0.02690350       1
H              50.74480000    -19.72350000    -11.44770000     -0.07482070     -0.08791730      0.06364850       1
O              14.19550000      1.64265000     10.72260000      0.00363992      0.02221730      0.04790000       8
H              13.12480000      2.18106000     12.44310000      0.00230428     -0.02399160     -0.06208480       1
H              13.40330000      0.60090200      9.48469000     -0.02267200     -0.00829932      0.02056900       1
O             -33.65510000     -3.60888000     45.00830000      0.01745300     -0.03750720     -0.07285640       8
H             -33.72620000     -4.24988000     42.80370000     -0.00326708      0.03649470      0.06634910       1
H             -32.24800000     -4.73428000     45.57990000     -0.02809280      0.01481420      0.00063969       1
O               9.63567000    -11.68000000     -6.44836000      0.06286610      0.01836330     -0.00092373       8
H               9.22220000    -10.82360000     -4.85287000     -0.00789303     -0.00147611     -0.00414700       1
H              11.55580000    -11.31410000     -6.62351000     -0.05605820     -0.01139160     -0.00514357       1
O              23.75440000     15.34200000     12.22910000      0.04969330      0.03322210      0.10410200       8
H              24.55570000     16.51490000     13.98560000     -0.03180190     -0.06333450     -0.07208270       1
H              23.46000000     16.66020000     11.09220000     -0.00787499      0.02324180     -0.03070700       1
O               9.53029000     21.56330000     -9.56655000      0.03947950      0.05099700     -0.19441100       8
H               8.78169000     20.81960000     -8.35775000     -0.08539160     -0.07532120      0.13812600       1
H               8.54150000     20.76830000    -11.22010000      0.03858200      0.02444840      0.05616020       1
O              23.15800000     51.57710000     29.70130000     -0.00407539     -0.15215800     -0.03684700       8
H              24.77400000     50.74920000     30.03070000     -0.00318032      0.02548800      0.01442850       1
H              23.06400000     53.20070000     29.87960000      0.00770357      0.12670300      0.02008430       1
O              -7.94998000      8.64034000      4.53216000     -0.04283600     -0.03392790      0.02584810       8
H              -8.69329000      9.71837000      3.10973000      0.00218615     -0.02808720      0.02200560       1
H              -9.20263000      7.31974000      5.47678000      0.04637090      0.05537220     -0.04862700       1
O              14.28690000    -28.43280000     15.72280000     -0.04455090     -0.06928990     -0.01741060       8
H              12.51410000    -27.78630000     15.23110000      0.03365500     -0.00618277      0.00960980       1
H              14.03250000    -30.46590000     15.41150000      0.02362300      0.06526200      0.00536385       1
O               2.32487000     16.04760000     41.57130000      0.07208380     -0.07533020     -0.02527680       8
H               2.33234000     14.14060000     42.39610000     -0.02475610      0.06207920     -0.00034226       1
H               4.05811000     15.44680000     40.49640000     -0.05785410      0.03003360      0.01848600       1
O              42.06700000     41.70570000     -0.76733300      0.04962290      0.02358720     -0.01283090       8
H              43.52280000     42.94130000     -0.54695300     -0.02383430     -0.02666110      0.00100644       1
H              41.29350000     41.43720000      0.82434600     -0.01519350      0.00470327      0.01629230       1
O              21.32800000     10.76960000    -29.34950000     -0.01609670     -0.09579860      0.03206390       8
H              20.95190000      8.61104000    -29.41620000      0.01786910      0.06353570      0.03003600       1
H              21.50390000     10.68730000    -31.06440000      0.00251484      0.03111600     -0.06962540       1
O             -14.23310000     42.39280000      3.40477000     -0.05651520     -0.12755100     -0.06360340       8
H             -16.02040000     41.81460000      3.86231000      0.02956720     -0.00110419     -0.00852515       1
H             -14.11270000     43.81000000      4.20388000      0.02302350      0.13114100      0.07745930       1
O              11.30690000    -25.91980000     30.31400000     -0.05541350     -0.02945370      0.00449243       8
H              12.51510000    -26.34020000     31.50540000      0.03614820     -0.01899880      0.02364530       1
H              11.88000000    -24.62470000     29.32350000      0.01721490      0.04234170     -0.03208000       1
O               3.44655000     35.85370000      1.26772000     -0.05875720      0.01991880      0.06555120       8
H               1.67805000     36.50120000      2.13323000      0.05464310     -0.02402600     -0.01734640       1
H               2.98184000     36.28350000     -0.37779800     -0.00155835      0.00229926     -0.04221740       1
O             -11.78340000    -13.81260000     13.55140000      0.02693640     -0.03131660     -0.04296500       8
H             -10.39860000    -15.20290000     13.06010000     -0.03663780      0.04538070      0.01178100       1
H             -12.18760000    -13.10490000     11.84140000      0.00295163     -0.00702650      0.02915930       1
O              -6.06035000      4.47103000     15.19960000      0.01520030      0.02467580      0.05635060       8
H              -4.72482000      4.77036000     16.62410000     -0.03833170     -0.01622580     -0.04509470       1
H              -5.65316000      3.14449000     14.04830000      0.02305290     -0.01119310     -0.00699302       1
O              25.90640000    -12.04120000     -3.78670000      0.05594040      0.03981270      0.01280450       8
H              24.27330000    -12.63810000     -4.06489000     -0.03335060     -0.02818090     -0.01213960       1
H              27.28980000    -13.16090000     -4.17929000     -0.01372050     -0.01870120     -0.00727134       1
O              20.92600000      5.87838000     43.84920000     -0.23531900      0.18634100     -0.07959070       8
H              19.90030000      5.85378000     45.27230000     -0.02998940     -0.00246223      0.03649270       1
H              22.07890000      4.93447000     44.07460000      0.24351100     -0.18286800      0.04306700       1
O              14.01310000     25.99930000     46.16490000     -0.05078360      0.00877081     -0.03000750       8
H              15.01420000     26.77510000     47.30960000      0.03890600      0.06571840      0.04949260       1
H              14.73530000     24.45730000     46.41360000      0.01162470     -0.07968120     -0.01484510       1
O             -16.51830000      8.61844000     23.21520000     -0.17136600      0.05568650      0.04914500       8
H             -15.04420000      8.12000000     23.01410000      0.21285300     -0.05993550     -0.07000470       1
H             -16.46340000      7.97699000     24.90840000     -0.03492760      0.00765867      0.02385220       1
