192
Lattice="24.26333 0.0 0.0 0.0 24.26333 0.0 0.0 0.0 24.26333" Properties=species:S:1:pos:R:3:force:R:3 TotEnergy=-1102.99698 cutoff=-1.0 nneightol=1.2 pbc="T T T"
O       16.81650000      23.65040000      10.64800000      -0.02973320      -0.00408868       0.00040455
H       15.79110000      22.12680000      10.72560000       0.01944220      -0.00285666       0.00719664
H       15.61030000       0.59613300      11.36760000       0.01716740       0.00695238      -0.00151239
O       20.55460000       4.17868000      21.48690000       0.06583660       0.01998330      -0.07635980
H       20.55840000       4.22100000      23.21700000       0.00599566       0.00008364       0.04713200
H       22.44490000       4.93460000      20.88270000      -0.07072840      -0.02105480       0.02474050
O       17.31840000      24.22858900      18.80310000       0.02923480      -0.03076000      -0.00074837
H       15.71620000       0.56479200      18.43720000      -0.04249710       0.02373050      -0.01055880
H       17.91960000       1.23473000      19.89140000       0.01906250       0.01968670       0.01373810
O        8.13224000       4.74239000       3.53438000      -0.00420143       0.00526339       0.03231120
H        8.87667000       3.50494000       2.35379000      -0.00146973       0.03323390      -0.00616963
H        7.43335000       6.40023000       3.15444000       0.00456803      -0.02114040      -0.01894690
O       19.70110000      15.98100000       4.69261000      -0.02192790       0.00225742       0.00023513
H       18.44310000      15.29670000       5.88431000       0.01103530       0.00674774      -0.01368580
H       18.79040000      16.11690000       3.08278000       0.00403067      -0.00843885       0.01425030
O       22.71190000      22.38820000      21.59460000      -0.03120800      -0.03709970       0.05609630
H       24.00485700      21.01880000      21.70190000      -0.00999816       0.00425658       0.00083923
H       22.94230000      23.34120000      23.16140000       0.01468360       0.02410250      -0.00315750
O       22.87800000      11.19270000      16.48840000       0.06663490      -0.32412100      -0.24493600
H       22.70960000      12.39840000      17.25680000      -0.06242360       0.34946100       0.24665500
H       23.71011900      11.92680000      15.02520000      -0.00118251      -0.01976860       0.00381546
O       16.58770000       5.69499000       4.30270000      -0.01364370       0.02140220      -0.01056800
H       16.63750000       3.94074000       3.95081000       0.00118613      -0.02162300      -0.00325734
H       15.68180000       6.39452000       2.84037000       0.00878083      -0.00185731       0.01128480
O       20.12450000       7.80839000       9.17619000      -0.01808850       0.01897800      -0.16852400
H       20.44470000       7.05454000      10.56340000       0.02768230      -0.06118550       0.15532200
H       20.20550000       6.20993000       8.13636000      -0.01577670       0.03064730       0.01110790
O        2.11646000      23.36810000       7.78440000       0.07906830       0.03753240       0.06331930
H        2.06900000      23.16050000       9.64093000       0.00154602       0.00975573      -0.02564110
H        0.75043700      22.59590000       7.18639000      -0.07361140      -0.04688790      -0.03453060
O        8.67147000      16.03710000      11.50300000      -0.03335470       0.00987498      -0.00319117
H        9.62164000      15.87890000       9.96131000       0.00751288       0.00617103       0.00153713
H        7.16226000      17.08440000      11.09790000       0.02887890      -0.01335870       0.00085406
O        9.64374000       9.65244000      10.56730000      -0.01735550       0.02211030       0.00295352
H       10.65740000       8.25783000      10.19750000       0.01779110      -0.02958520      -0.00941687
H        9.94005000      10.68120000       9.10672000       0.00097533       0.00678604      -0.00009477
O       14.43830000      21.30290000       6.17418000       0.04145800       0.00215047       0.02507270
H       15.43950000      22.35140000       7.36225000      -0.01405810      -0.00162257      -0.02163250
H       15.30210000      19.70790000       6.52320000      -0.02174390       0.00058294      -0.00620734
O        7.58269000       6.03718000      20.43530000       0.00706522      -0.03996050      -0.02050810
H        7.42641000       4.34937000      19.58120000      -0.00063491       0.02506180       0.02487120
H        7.09057000       7.10824000      19.08360000      -0.00909947       0.01842790      -0.00283868
O       10.42070000       1.26023000       1.00099000       0.03019060       0.01819350      -0.02102410
H       12.30540000       1.05770000       1.01707000      -0.02628460      -0.00201311       0.01061860
H        9.70146000      24.04121400       1.63259000       0.00582281      -0.03238570       0.00571026
O       13.01040000       2.97722000      18.74430000      -0.00995242       0.01849040      -0.05280210
H       12.88670000       4.40871000      19.83110000      -0.00088569       0.00477735       0.00440733
H       12.80570000       3.70984000      16.94500000       0.00906742      -0.02635470       0.04846300
O       17.68490000      17.98730000      12.40310000      -0.04537580      -0.00432258      -0.00206930
H       19.38380000      18.12400000      12.74070000       0.04864300      -0.00411583       0.00340902
H       16.95200000      18.56180000      13.98570000      -0.00671982       0.00168148      -0.00900092
O        4.63847000      10.76450000      13.09440000      -0.04410610       0.01395870      -0.01547020
H        3.27041000      11.69370000      12.21700000       0.00923306      -0.00871068       0.02752550
H        5.63995000      10.71670000      11.63100000       0.03846060      -0.00799292      -0.01132960
O       22.26230000      20.92730000       5.95589000       0.02428120      -0.04527410      -0.08405160
H       21.46310000      21.51030000       7.31061000      -0.04729390       0.03502710       0.07537320
H       21.20480000      19.49590000       5.38949000       0.01440430       0.00620668       0.00413796
O        4.15448000      21.71730000      23.68749500       0.00299059       0.00139007      -0.00345394
H        5.60253000      22.72450000      23.19030000      -0.01457470      -0.00361572      -0.00978178
H        4.00319000      22.22750000       1.17624000       0.00212769      -0.00285528       0.00135801
O       11.66640000      16.14540000      15.87970000       0.00526452       0.03001960       0.00325480
H       10.15210000      15.70470000      14.98960000      -0.00206477      -0.00021977      -0.01132490
H       11.86210000      17.99950000      15.55910000       0.00034885      -0.04047530       0.01068930
O        5.71999000       9.68959000       3.24472000      -0.00233647      -0.03104740       0.00246232
H        7.28590000      10.26110000       2.68851000       0.03531560       0.00792757      -0.01839340
H        5.20077000      11.07650000       4.20906000      -0.02376780       0.01843920       0.01264550
O        5.76798000       5.50237000       9.17539000       0.00421233       0.01238020      -0.01263030
H        6.82619000       6.02505000       7.72488000      -0.01540660      -0.00776487       0.02592930
H        6.25087000       6.49824000      10.62730000       0.00712366      -0.00194087      -0.01214060
O        1.92570000       0.92992700      13.36420000      -0.04196060      -0.07196050       0.02387870
H        0.50519700      24.20714300      14.28550000       0.03413900       0.01408140      -0.02406510
H        1.43675000       2.49411000      14.02710000      -0.00266431       0.05065270       0.00320367
O       15.49110000      12.25540000      17.72210000       0.04103420      -0.03735360       0.03121990
H       14.20620000      11.22010000      18.43370000      -0.00499349      -0.00206192       0.00260316
H       14.75200000      13.41070000      16.69530000      -0.04026400       0.04502440      -0.03790920
O        6.13466000      23.02590000      15.00240000      -0.05417260       0.02594750       0.01570540
H        4.27033000      23.92946500      14.83880000       0.06053330      -0.03293700      -0.00570641
H        6.01265000      21.28900000      15.71260000      -0.00480423       0.01152930      -0.01807030
O        0.50776700       6.97483000      19.29700000      -0.05130910       0.04925690      -0.05694220
H       24.16172200       8.71986000      18.58090000       0.00205619      -0.05269910       0.01419560
H        2.05858000       7.61175000      19.81120000       0.04246100      -0.00227005       0.03099590
O       14.68330000       3.82975000      13.00280000      -0.05759100       0.07109650      -0.02334270
H       15.91550000       5.25018000      13.15440000      -0.01676120      -0.02084230      -0.00247812
H       12.98000000       4.82412000      12.29450000       0.07705840      -0.04605200       0.02487410
O       22.23360000      22.85150000      16.59490000      -0.00815078      -0.00763059      -0.01242400
H       22.52080000      22.22600000      18.27930000      -0.00218220       0.00982296      -0.00663901
H       20.45400000      23.31160000      16.59090000       0.00665516       0.00205115       0.00233413
O        1.63609000       7.40666000      24.04042700      -0.02874110      -0.03274180       0.06337380
H       23.49180600       6.10556000       1.66443000       0.02967090       0.04428570      -0.01355410
H        2.96768000       7.38655000       1.10477000      -0.02350080       0.00421436      -0.02302640
O       14.71060000      20.56610000      15.77680000      -0.01928230      -0.01891120      -0.02455710
H       15.04810000      21.87920000      16.87840000       0.01542430       0.02029110       0.02710180
H       13.35390000      21.32540000      14.81370000      -0.00064358       0.00201039      -0.00423657
O        0.91609300       8.14736000       7.49022000      -0.01624830       0.01247110      -0.02043540
H       23.51240000       7.89934000       8.28473000       0.03142520       0.00370514       0.01622520
H        2.48412000       7.75947000       8.34054000      -0.01543240      -0.01416360       0.00674034
O       13.21480000      16.66670000       7.87979000       0.01978090      -0.00476570      -0.00117152
H       14.41870000      15.76170000       8.94233000      -0.01088920       0.00532874      -0.01207320
H       13.56230000      16.04740000       6.10811000      -0.02044240      -0.01426270       0.02084750
O        6.54125000      20.10770000       8.47813000      -0.01837320      -0.02652080      -0.00755624
H        7.41890000      21.58940000       8.98754000       0.01665340       0.01051770      -0.00141958
H        4.85298000      20.67850000       8.07730000       0.00303977       0.00451542      -0.00121615
O       18.42560000      12.86510000      24.10325500      -0.00031748      -0.02520690      -0.02456840
H       16.96570000      13.53290000      23.22020000      -0.00289814       0.00835115       0.01551050
H       18.51500000      11.16160000      23.33950000       0.00130834       0.01705470       0.01456970
O       11.83780000       5.43152000       7.38540000      -0.00808829       0.00035640       0.02606670
H       13.43540000       5.39550000       6.54811000       0.00243263       0.00554828      -0.01096760
H       10.44830000       5.56321000       6.20947000       0.00981769      -0.00574182      -0.01250450
O        2.59833000      13.84510000       3.10247000       0.01379210       0.03571400       0.04918820
H        1.50505000      12.82120000       2.02663000      -0.00358562       0.00715133       0.00227095
H        1.82230000      14.68690000       4.65311000      -0.00240109      -0.02998400      -0.04582300
O       17.77770000      12.99970000       9.35781000       0.01779960       0.24460100      -0.00237093
H       17.50880000      13.47540000      11.03340000      -0.00165834       0.00791852       0.02339770
H       17.70100000      11.47050000       9.18930000      -0.01244670      -0.24881300      -0.02378110
O       18.67690000       8.77853000      14.36640000      -0.09153120      -0.00817641      -0.00933924
H       18.04570000      10.43620000      14.77280000       0.00804551      -0.00856065       0.00601485
H       20.36960000       8.76506000      14.39160000       0.07627800       0.00747729       0.00953814
O       23.96652600      13.76770000       7.67010000      -0.04395030      -0.00979118      -0.01892290
H       22.10610000      13.77200000       7.12572000       0.04756210       0.00738486       0.01669790
H        0.28712700      12.23000000       6.86248000       0.00083304      -0.00229271       0.00990271
O       19.69840000      15.63410000      19.02280000       0.05574170      -0.00557873      -0.12166900
H       18.30950000      14.89460000      18.16350000      -0.00456308      -0.01102840      -0.01966300
H       18.96570000      15.72580000      20.47340000      -0.04652370       0.01623620       0.14168600
O       17.53190000      20.82980000      23.07450000       0.05142070      -0.00606222       0.01830520
H       16.98370000      21.61540000      21.54790000      -0.00445351      -0.00018087      -0.01274350
H       20.57960000      21.55030000      22.78870000      -0.02249770      -0.01010820      -0.03248680
O       22.37190000       1.09934000       2.02965000       0.00853145      -0.04844470       0.00417968
H       22.24860000       2.64533000       2.87751000      -0.00387788       0.02389730       0.01128400
H       22.59470000      24.13215900       3.41263000      -0.00641021       0.01043110      -0.01432230
O       10.50500000      23.93010000       8.55458000      -0.04850020       0.02733960      -0.02150020
H       12.12990000      23.53190000       9.03986000       0.03337700      -0.00919127       0.00086374
H       10.57780000       0.79103500       7.06953000       0.00413139      -0.01457700       0.02596180
O       15.59110000       0.22195700       2.69548000       0.03817230       0.07255480      -0.09414140
H       15.29430000      23.02940000       3.48114000      -0.02779410      -0.08288780       0.06440790
H       16.56730000      23.73470000       1.25259000      -0.01157850       0.01814250       0.01662490
O        5.12568000      18.27880000      16.14130000      -0.08466340       0.02875010       0.01641460
H        2.98864000      19.22730000      16.70450000       0.09384090      -0.05799750      -0.03278620
H        5.01178000      17.35980000      14.50610000      -0.01241420       0.01826400       0.02346860
O        7.53173000      16.52020000       4.57442000       0.01812840       0.00604309       0.02804350
H        5.82445000      16.08210000       4.34915000      -0.03136280      -0.02031380      -0.02798400
H        7.31918000      17.30170000       6.37784000       0.03224380      -0.00059702      -0.02634370
O       22.57600000      17.48900000      15.03120000      -0.02462940       0.01840020       0.04896740
H       22.24270000      19.35350000      14.92230000       0.01195050      -0.03058550       0.00680251
H       21.84280000      17.01780000      16.79970000       0.01502150       0.01306460      -0.04661470
O        4.95194000      10.89070000      18.69940000       0.00982722       0.00590825       0.02678610
H        5.87370000      11.93470000      19.92030000      -0.01060530      -0.01146800      -0.00780330
H        5.67039000      11.41950000      17.15500000       0.00112335       0.00379533      -0.02085340
O       11.81400000       8.92412000      22.02330000       0.08611490       0.13001300       0.02936440
H       10.69210000       7.88213000      21.43140000      -0.09676450      -0.08365300      -0.04515350
H       11.24310000      10.71830000      21.58900000       0.00685857      -0.03550900       0.01268530
O       21.59240000       6.26388000       3.38419000      -0.00343321       0.01359830      -0.01722500
H       19.94880000       7.05045000       2.73660000       0.03141590      -0.01731280       0.01999650
H       22.08500000       6.98154000       5.04318000       0.00126187      -0.00341848      -0.02981950
O       21.52870000       2.08847000       8.94968000      -0.00041640       0.01306330      -0.01250430
H       23.12900000       1.98941000       9.76600000       0.00788992      -0.00130864       0.00419201
H       20.41650000       0.94970200       9.77548000      -0.01074230      -0.00494051       0.00809798
O       10.05610000      13.99300000      20.58750000       0.00401212      -0.02437860      -0.03241400
H       10.92750000      14.64350000      19.08480000      -0.00828863      -0.00073867       0.00663731
H       10.19850000      15.31780000      21.73970000       0.00460326       0.02099380       0.02625790
O       10.99490000      24.24174500      14.44170000      -0.06221230       0.03304690       0.02503320
H       10.26450000       0.84095900      12.97710000       0.01480050      -0.01609180      -0.00048217
H        9.35444000       0.30091700      15.55620000       0.05190410      -0.02654050      -0.03166380
O        2.03726000      17.69870000      21.15730000      -0.12875100      -0.12921100      -0.11084800
H        1.71273000      16.13410000      22.02570000       0.00558562       0.00613854       0.00472316
H        2.90330000      18.78920000      21.89970000       0.11890200       0.12506600       0.10842000
O       24.05555100      12.51420000      23.41380000       0.00902819       0.07718270       0.02376620
H       23.95240100      10.90560000      22.83280000      -0.00350045      -0.06847540      -0.01274610
H       22.54130000      13.04620000      24.25870000      -0.00898411      -0.00756530      -0.00984660
O       16.61390000       7.61517000      23.23670000      -0.02337760       0.01219130      -0.01778120
H       15.06540000       8.60155000      22.58500000       0.02749600      -0.03340820       0.01635910
H       16.97610000       6.25074000      22.04230000      -0.00087315       0.01848740       0.00717587
O        0.58382600       5.72481000      14.04420000       0.01474250       0.01645390       0.02846630
H        0.78190500       6.21634000      15.86950000      -0.01351250      -0.01016050      -0.01452130
H        2.13759000       6.44948000      13.42310000      -0.00428616       0.00001781      -0.00885330
O       12.38460000      13.52370000       4.01843000      -0.03111050       0.03063940      -0.02768830
H        8.93386000      15.00190000       3.88479000       0.02167120       0.01188870       0.03013970
H       13.07570000      14.27180000       2.43461000      -0.00780948      -0.01505330       0.02276590
O        5.48145000      23.94333900       3.61781000       0.00032685      -0.01540080       0.00276133
H        4.14102000       0.82946700       4.01858000       0.01062820       0.00962557       0.00364064
H        6.86948000       0.52956400       2.82658000      -0.01882210       0.01344070       0.00901884
O        2.22147000      16.35750000      11.86890000      -0.00770995      -0.01222960       0.04384170
H        1.36557000      16.11080000      13.54770000       0.01334480       0.02000680      -0.02743740
H        1.29666000      15.12270000      10.95360000      -0.00717908      -0.00338728      -0.02558830
O       14.72750000      16.69830000       0.00854900       0.02579860       0.04088940      -0.01966660
H       16.41660000      18.66840000      23.50740000      -0.03372630      -0.01326930       0.01342080
H       13.04890000      17.47170000       0.13992600       0.02349280      -0.00194449      -0.00570537
O        6.54622000       0.63256100      19.86530000       0.01393970       0.03247460       0.05616750
H        6.22783000      23.91598000      18.42710000       0.01439270      -0.01744640      -0.03184780
H        8.27605000       0.72970600      20.52830000      -0.01688800      -0.01209560      -0.02101110
O        9.46905000      19.00030000      23.86797000       0.09033220      -0.01714130       0.04273000
H        8.84828000      18.71190000       1.23103000      -0.03358320       0.00315705       0.00533025
H        8.72277000      19.40010000      22.40580000      -0.05933820       0.01676670      -0.04727030
