192
TotEnergy=-1102.19755000 cutoff=-1.00000000 nneightol=1.20000000 pbc="T T T" Lattice="25.05901000       0.00000000       0.00000000      -0.00000100      25.05901000       0.00000000      -0.00000100      -0.00000100      25.05901000" Properties=species:S:1:pos:R:3:force:R:3:Z:I:1
O               8.01649000      4.13385000     24.34320000      0.04179930     -0.09518490     -0.04104860       8
H               7.16866000      2.43832000     23.96180000      0.01795080      0.04490160      0.01722410       1
H               6.89688000      5.30779000     24.83100000     -0.05757430      0.04776610      0.02158620       1
O              16.22110000      2.26154000      3.46702000      0.03451730     -0.06625440      0.03805100       8
H              15.86590000      1.18812000      5.10957000      0.02058460      0.03339100     -0.05390670       1
H              18.00070000      1.69817000      2.85363000     -0.05198360      0.01792770      0.01989970       1
O              20.47200000     20.94650000      2.65089000     -0.01005360      0.00413171     -0.05351120       8
H              21.16200000     20.60100000      0.85140900     -0.02861340      0.01625770      0.05613800       1
H              18.75430000     21.78400000      2.36694000      0.04723840     -0.02372370     -0.00195638       1
O               2.92887000      7.96090000      3.07597000     -0.00723001      0.00667550      0.02291770       8
H               3.95308000      7.12734000      4.35012000     -0.00358923      0.01040210     -0.01086250       1
H               2.15025000      9.34404000      4.05725000      0.00963603     -0.01653660     -0.01608650       1
O               1.51424000      5.13169000     19.82210000      0.00133172     -0.02620990      0.05908700       8
H               2.32420000      3.67695000     19.15930000      0.00911145     -0.00462604     -0.02905480       1
H               1.44872000      4.43952000     21.59930000     -0.00683667      0.03150910     -0.02627110       1
O              24.22230000     14.22490000      4.84398000     -0.00215457      0.02486280     -0.09621830       8
H              25.48840000     15.22740000      3.63137000     -0.04063880     -0.03819590      0.04894950       1
H              22.91410000     13.78690000      3.40561000      0.04287490      0.01240920      0.04549700       1
O               2.52985000     15.62370000     11.16450000      0.01169410     -0.03309320     -0.04021840       8
H               0.79291400     15.17440000     11.57120000      0.02139940      0.02640090      0.01875710       1
H               3.66196000     16.92160000     11.72590000     -0.03147550      0.00892258      0.02206580       1
O               6.55736000      9.09717000     15.62810000     -0.00154964      0.00894055      0.05643730       8
H               5.24587000      9.94006000     16.77030000      0.03450150     -0.02032410     -0.02609350       1
H               8.14301000      8.86487000     16.71760000     -0.04048450      0.00796865     -0.02614820       1
O               4.46435000     16.07780000      0.28335800     -0.02918950      0.08560820      0.00301695       8
H               4.59560000     14.36480000     -0.00642100      0.02960280     -0.04017370      0.01073860       1
H               5.40372000     17.28600000      1.36658000     -0.00031637     -0.04755140     -0.01957000       1
O              20.36300000     12.72640000      8.83793000      0.01163520      0.00343757     -0.08005790       8
H              21.72190000     13.00200000      7.49678000     -0.01381180     -0.00249453      0.04255640       1
H              19.05000000     12.47910000      7.46291000      0.00436454     -0.00026282      0.04055340       1
O              14.33310000     13.76950000     22.47500000      0.11744800      0.09633610      0.11180900       8
H              14.48310000     12.93650000     21.11810000      0.02567750     -0.08279760     -0.15120300       1
H              12.77000000     13.62400000     22.90530000     -0.14004700     -0.01242590      0.04201150       1
O               9.49318000     12.22840000     24.19790000      0.04803740      0.03837800      0.05907200       8
H               9.63703000     11.46910000     25.88940000      0.01355740      0.03106270     -0.00672687       1
H               8.57209000     10.93900000     23.63680000     -0.06098240     -0.06207300     -0.05566120       1
O              13.70640000      6.42410000      2.86742000     -0.12317200     -0.01259800      0.04052640       8
H              14.36840000      5.13025000      3.83211000      0.02782720     -0.03181510      0.01655140       1
H              14.97250000      7.22602000      2.19086000      0.09316700      0.05424960     -0.05577730       1
O               5.08019000      9.66917000     23.54710000      0.07565580      0.03734340      0.21567300       8
H               4.38623000      9.17337000     22.25700000     -0.09901330     -0.06116670     -0.22155300       1
H               4.05290000      8.64402000     24.73620000      0.01905090      0.02408890      0.00755761       1
O              11.40610000      8.96349000     17.36780000      0.05658750     -0.03736890      0.08779830       8
H              12.83520000      7.83237000     18.33210000     -0.06079230      0.04641990     -0.02044600       1
H              11.99610000      8.44526000     15.83170000      0.01168910     -0.01387600     -0.07400500       1
O              12.04870000     18.50900000     12.30350000      0.02277480      0.04536490      0.00120406       8
H              13.14020000     17.60090000     13.41540000      0.00516309     -0.01257910      0.01066920       1
H              11.96270000     17.44220000     10.83410000      0.00191533     -0.00483554     -0.01643580       1
O               4.07456000      4.68919000     12.48450000     -0.18587600     -0.07948570     -0.11832500       8
H               3.41726000      6.29131000     12.25740000     -0.02576630      0.03487580     -0.00853177       1
H               5.36374000      5.02044000     13.25660000      0.21594200      0.04953750      0.13233200       1
O              12.79070000     19.62300000     18.10690000      0.11673800      0.02928300     -0.05355830       8
H              11.24700000     19.13450000     18.49330000     -0.09327640     -0.03579190      0.02568360       1
H              13.61160000     18.40340000     16.97000000     -0.01652360      0.00697593      0.02985000       1
O              23.50250000      7.92831000     16.88820000     -0.02933710      0.01287810     -0.01482610       8
H              21.97670000      7.60124000     15.73340000      0.05725540     -0.01284550      0.04022630       1
H              24.23230000      6.67549000     18.08090000     -0.02486870     -0.00065737     -0.02760160       1
O               4.78856000     22.99170000     24.05610000     -0.02843750     -0.02296530     -0.03798680       8
H               3.26006000     21.05910000     22.54740000      0.00969004      0.00550249      0.04584790       1
H               4.70397000     22.80870000     25.87290000     -0.00203186     -0.01019810     -0.01077680       1
O              10.29910000      4.17559000     11.58780000      0.27772200      0.24087100      0.05195120       8
H               9.79504000      2.89887000     12.09820000     -0.11485100     -0.32827300      0.13422900       1
H               9.29135000      4.64723000     10.53630000     -0.16436100      0.08430240     -0.17313100       1
O               3.20163000     20.21710000     14.40710000     -0.03489140     -0.04162740     -0.16380600       8
H               3.76884000     21.76630000     13.88860000      0.01641950      0.04820730      0.00339936       1
H               3.35454000     19.95650000     15.98180000      0.01663530     -0.01572520      0.15919700       1
O              14.48990000     13.68700000     17.09590000     -0.03851590     -0.03944970     -0.07172640       8
H              13.18880000     12.20360000     16.18800000      0.06278120      0.06766430      0.04100140       1
H              15.66030000     14.33620000     15.72780000     -0.02700050     -0.02427080      0.02612610       1
O              22.18240000      2.48532000      1.84304000     -0.10000200      0.06837040     -0.17002800       8
H              23.45670000      1.62779000      1.04228000      0.03251440     -0.02459880     -0.05614700       1
H              22.67990000      2.16376000      3.27865000      0.05427670     -0.03773480      0.23327600       1
O              11.96790000     23.67460000      1.21724000     -0.00745250      0.01639960      0.07803200       8
H              13.13710000     25.30960000      1.57064000     -0.04795350     -0.05962670      0.00071536       1
H              10.87390000     22.95970000      3.07189000      0.05815490      0.04454680     -0.07321830       1
O              18.05450000     16.39520000     13.62300000     -0.00358618      0.04237650     -0.07521580       8
H              17.74190000     17.23570000     11.86960000     -0.02130890     -0.01969690      0.04835220       1
H              19.74530000     16.26280000     12.99670000      0.02483970     -0.01995380      0.02471630       1
O               0.15340400     25.48500000     23.66480000      0.00759904      0.02285030     -0.05745950       8
H               1.56576000     24.29740000     23.66260000      0.01336240      0.00270191      0.00578566       1
H               0.29938000     26.34830000     21.94850000     -0.01133530     -0.02963400      0.04670250       1
O               9.43707000      3.95046000      6.48271000      0.03402300      0.01482320     -0.04385160       8
H              10.63690000      4.44334000      5.02892000     -0.03763350     -0.01205080      0.04133270       1
H               9.33265000      5.46545000      7.48415000      0.00026979      0.00276189     -0.01507250       1
O              23.38640000     22.44020000     11.56380000      0.11019100     -0.01533520      0.00589741       8
H              24.77120000     21.00070000     11.35590000     -0.05374440      0.05395390      0.01087310       1
H              21.91500000     21.64150000     11.21940000     -0.05557300     -0.03419580     -0.01837440       1
O              21.60480000     19.16240000      7.64744000     -0.03176320     -0.05594590      0.16668600       8
H              21.89230000     19.72170000      6.19277000      0.02190820      0.10468100     -0.17773100       1
H              21.98480000     17.53030000      7.13979000      0.00499864     -0.05316020      0.01199700       1
O              20.49870000     21.75210000     17.33940000     -0.01522430     -0.01469760     -0.01442810       8
H              19.33450000     21.40180000     15.84980000      0.02810270      0.02808820      0.04769500       1
H              20.31830000     23.36280000     18.26450000     -0.01419610     -0.01721370     -0.02915800       1
O              12.69140000      7.30384000     22.68260000      0.13057500     -0.33035400      0.12914600       8
H              11.99910000      8.49795000     22.17640000     -0.17440700      0.29640700     -0.11947800       1
H              11.32910000      5.99773000     23.20150000      0.04191430      0.03756240     -0.01211020       1
O              19.62880000     11.66300000     18.61900000     -0.06716950      0.15935700      0.01791310       8
H              20.40380000     10.42150000     17.94750000      0.08439690     -0.13402100     -0.05511270       1
H              19.70180000     12.82880000     17.09700000     -0.00899892     -0.02096600      0.03912680       1
O              18.40900000      2.31722000     17.36390000      0.06871260      0.03419400     -0.00538930       8
H              16.84810000      1.49476000     17.47570000     -0.03180820      0.00535559      0.02041410       1
H              18.92020000      3.70516000     18.54950000     -0.03629110     -0.03386390     -0.01343310       1
O              23.25220000     12.64650000     13.56380000     -0.06614080      0.10360900      0.07128620       8
H              24.49600000     11.60590000     13.76380000      0.09997500     -0.09157530      0.01594190       1
H              22.62310000     12.52080000     12.01900000     -0.03931930     -0.01496350     -0.08949420       1
O               7.45653000      2.81533000     17.94600000     -0.13289300     -0.08649140     -0.22790000       8
H               9.00029000      2.52457000     17.62430000      0.15992500     -0.02800140     -0.03522080       1
H               7.37379000      3.42792000     19.32420000     -0.02013020      0.12050600      0.26956200       1
O              15.67720000      2.66081000     10.26060000      0.00098406     -0.06532870      0.04032660       8
H              14.17600000      1.42081000     10.03090000      0.05038610      0.03606250      0.01090730       1
H              16.87420000      1.81522000     11.63290000     -0.04931780      0.02723610     -0.05301410       1
O              13.30240000     16.52620000      2.36712000      0.00836737      0.14583000      0.07520780       8
H              14.65740000     17.80710000      1.85403000     -0.04018200     -0.01488750      0.03072790       1
H              13.85080000     15.49040000      1.25359000      0.03354160     -0.12322500     -0.10450100       1
O              14.45560000      7.51609000     12.61430000      0.05151880     -0.01459430     -0.00482490       8
H              16.44860000      7.28487000     12.75040000     -0.08427440     -0.00184243     -0.01284520       1
H              13.62470000      6.11368000     11.61830000      0.03159350      0.01895040      0.02401270       1
O              24.39910000      7.71805000     10.86050000      0.07374680     -0.05811990      0.02586080       8
H              23.02090000      8.39074000     10.10010000     -0.05252470      0.00987181     -0.03546240       1
H              24.65830000      5.84265000     10.51400000     -0.02348590      0.05176530      0.00664517       1
O               9.68332000     22.88920000     20.77520000      0.17642500      0.05081080      0.11885800       8
H               8.40887000     22.53200000     19.93020000     -0.17602800     -0.04661670     -0.09050040       1
H               9.47227000     22.84380000     22.62870000     -0.00617028      0.00010150     -0.02838040       1
O               4.55926000     16.61260000      5.94047000      0.08954800     -0.14393200      0.16487300       8
H               3.47059000     16.14580000      7.44412000      0.02013910      0.01256100     -0.03231420       1
H               3.77623000     17.52170000      4.93039000     -0.10672100      0.12765600     -0.12391700       1
O               9.59655000     22.08400000      6.61330000      0.01711160     -0.04455730     -0.01244620       8
H              10.53250000     20.31530000      6.64714000     -0.02306040      0.07832760      0.01330410       1
H               9.95003000     23.32740000      7.94990000      0.00895563     -0.03069280     -0.01082650       1
O              23.71470000     12.22170000     24.82440000     -0.00624230      0.02490690     -0.04258120       8
H              23.08750000     10.91420000     25.74470000      0.00255690     -0.06028980      0.08568190       1
H              22.46910000     11.50520000     23.69970000      0.00068185      0.03111530     -0.04266710       1
O              23.21340000      1.18587000      7.42087000     -0.05727130      0.05783320     -0.04003930       8
H              23.29520000     -0.28475500      8.23797000     -0.01246400     -0.08288430      0.04935560       1
H              24.88470000      1.52372000      7.31307000      0.07423140      0.02848390     -0.00933173       1
O              15.53530000     21.35580000      7.73579000     -0.24705000      0.18008900     -0.01665720       8
H              13.55150000     20.65090000     11.78530000     -0.00579361     -0.04309100     -0.03307670       1
H              16.69340000     20.42230000      8.00371000      0.23106100     -0.18199000      0.05037820       1
O              21.51710000      3.45860000     13.03780000     -0.03583460      0.14963500      0.02569150       8
H              20.05530000      3.73256000     14.15880000      0.02017550     -0.01625580     -0.00731733       1
H              21.68190000      1.85478000     12.79790000      0.01447870     -0.13871900     -0.01684760       1
O               4.66270000     -0.08439500     15.09640000      0.06481480     -0.18145900      0.23371500       8
H               5.68550000      0.80658800     16.44400000     -0.02027460     -0.01138640     -0.02402020       1
H               4.45333000      0.90649000     13.97420000     -0.04848540      0.19798100     -0.21468000       1
O              22.80740000     16.74630000     19.97030000     -0.06421480     -0.00807963     -0.02277140       8
H              21.40820000     17.89330000     19.30540000      0.03930520     -0.01464510      0.01337340       1
H              21.86580000     15.09460000     19.82690000      0.02588110      0.02590780      0.00880173       1
O              20.97040000      8.00395000      2.09237000     -0.02221760      0.04017070      0.05305920       8
H              21.19880000      6.31368000      1.68875000      0.00932649     -0.04293950     -0.01522120       1
H              20.40460000      7.83089000      3.92220000      0.01250100      0.00394336     -0.03776830       1
O               6.91168000     12.06850000     11.45890000      0.10485900     -0.02545700     -0.06378130       8
H               6.05106000     13.10840000     10.41180000     -0.02482380      0.04741550     -0.05829350       1
H               5.77409000     12.11990000     12.63810000     -0.07796490     -0.01670330      0.11323500       1
O               1.84434000     19.13460000     22.44480000      0.05208400      0.09677000      0.00948758       8
H               0.57268000     18.81440000     21.35600000     -0.05994940     -0.02144090     -0.04892330       1
H               2.46115000     17.82460000     23.41100000      0.02570370     -0.05233790      0.03404600       1
O              19.65090000      5.54069000      6.99599000     -0.07784610      0.11029900      0.02197370       8
H              20.68460000      4.27593000      6.92111000      0.08733760     -0.11041200     -0.01394550       1
H              19.34140000      5.59243000      8.79724000     -0.00618199      0.00301009     -0.00997188       1
O              17.75220000      6.69652000     21.06870000      0.16438300     -0.14714700     -0.07245760       8
H              16.36410000      7.30879000     21.38650000     -0.21360700      0.08787550      0.05293340       1
H              18.95700000      7.80346000     21.48310000      0.05465910      0.05352110      0.01990510       1
O               4.55098000     22.06260000      4.68983000     -0.16303200     -0.06115320     -0.02296080       8
H               3.05644000     23.13250000      4.30096000      0.04514480     -0.00544281      0.01265140       1
H               6.05311000     22.70080000      4.82655000      0.11326700      0.06770080      0.01402570       1
O               9.81331000     13.49030000      4.33925000     -0.21361200     -0.08132850     -0.05916120       8
H               7.88572000     14.51320000      4.44463000      0.08771110     -0.04799860     -0.00255761       1
H              10.79300000     14.56490000      4.98623000      0.11894200      0.12436900      0.06854330       1
O               6.85465000      9.25579000      6.73801000      0.00633922     -0.04793720     -0.08578820       8
H               7.25112000     10.45750000      7.94251000      0.01791770      0.03114110      0.01839010       1
H               7.69472000      9.46985000      4.96983000     -0.02095350      0.00910360      0.07143680       1
O               2.53766000     11.55190000     18.48170000     -0.02988100      0.05939180      0.01921570       8
H               1.67700000     13.23590000     18.95880000      0.03364080     -0.04388340     -0.01386820       1
H               1.04429000     10.55640000     18.32420000     -0.00753811     -0.01576460     -0.00796587       1
O              16.15300000     12.20720000      5.18262000     -0.02409580     -0.04577080     -0.03621430       8
H              17.26800000     11.96620000      3.63851000     -0.03647230      0.00062454      0.03362760       1
H              14.57420000     10.97870000      4.98266000      0.06113330      0.04102710     -0.00099005       1
O              13.82430000     25.21250000     17.32360000     -0.07948610     -0.06946980     -0.00191529       8
H              11.89860000     24.84970000     17.39390000      0.04341270      0.03995880      0.00141608       1
H              13.79510000     23.31920000     17.54630000      0.03405990      0.01919130      0.00555221       1
O              16.63680000     21.91420000     24.11080000     -0.03547150     -0.04895350      0.01348600       8
H              15.10110000     22.03730000     25.32810000      0.02891630     -0.00262881     -0.03989410       1
H              16.60510000     20.11560000     23.36860000     -0.00499081      0.05423050      0.02194710       1
O               9.69037000     23.46980000     12.41270000      0.05520960      0.01820390     -0.05268920       8
H               8.26193000     23.54670000     13.38040000     -0.03837830     -0.01535800      0.04059830       1
H              11.02830000     22.28350000     12.75420000     -0.02957680      0.00767637      0.01528870       1
O              13.06110000     13.05070000     10.22540000      0.26078500      0.23700400     -0.00243195       8
H              12.13790000     11.89530000     10.04190000     -0.21376400     -0.25289500     -0.03069110       1
H              14.61700000     12.47050000      9.15209000     -0.04770020      0.02679420      0.03842200       1
O               3.61412000      2.28563000      7.13951000     -0.12147400      0.19256700     -0.21233300       8
H               4.35116000      1.50599000      8.26107000      0.12539400     -0.09086320      0.17092800       1
H               4.06544000      4.29455000      6.69383000     -0.00645434     -0.10572800      0.04158330       1
