192
Lattice="23.97183 0.0 0.0 0.0 23.97183 0.0 0.0 0.0 23.97183" Properties=species:S:1:pos:R:3:force:R:3 TotEnergy=-1103.47993 cutoff=-1.0 nneightol=1.2 pbc="T T T"
O       23.79400000      19.92033000      20.13876000       0.04212620      -0.01641290       0.02435440
H       22.33130000      20.05844000      19.02366000       0.01932790      -0.01267130      -0.01567870
H        1.37067000      18.76248000      19.73276000      -0.05624130       0.02123900      -0.00391601
O       22.67537000      20.26307000       2.14108000       0.02159350       0.04604040      -0.00733089
H       23.50247000      21.84787000       1.41883000       0.00371016      -0.00989620       0.04255190
H       22.09887000      20.02137000       0.49461400      -0.02559360      -0.03424590      -0.03426720
O        9.28980000       1.76182000      13.58680000      -0.13185800       0.01110780      -0.19772600
H       10.16610000       2.47838000      14.63500000       0.14118000       0.12818600       0.16439300
H        9.26603000       0.20706100      14.09130000      -0.00591041      -0.13562500       0.03270260
O       18.98288000      14.09382000      22.22796000      -0.02110040       0.00942280       0.00776478
H       20.38140000      13.05833000      21.74109000       0.01614730       0.01616880       0.00191799
H       19.17559000      15.60679000      23.29926900       0.01333330      -0.02565620      -0.01315800
O        6.88558000       6.88107000      17.32510000      -0.01334210      -0.00952597      -0.02010910
H        7.88244000       7.83147000      18.45120000       0.01745650       0.02014880       0.02878850
H        7.51234000       7.47047000      15.71860000      -0.00526966      -0.00840351      -0.00584918
O       17.00038000      11.74090000       9.09821000      -0.00477032      -0.01073990      -0.06097280
H       15.99135000      10.04490000       8.69679000       0.03728260       0.03639120       0.01960290
H       18.16958000      12.14770000       7.60038000      -0.02769200      -0.01264380       0.03471950
O       19.79497000       0.53417000      13.43310000      -0.00118579      -0.01536040       0.00860920
H       21.41827000       1.38337000      13.27950000      -0.00552828      -0.00646177      -0.01339470
H       19.21187000      23.66400000      11.89040000       0.00539306       0.02078800       0.00553523
O        0.13649500      19.43016000       9.08293000       0.02293530      -0.03470060      -0.01469140
H        0.42340800      17.85936000       8.12261000       0.02286800       0.00442452       0.02641280
H       22.69578000      19.73996000       8.07991000      -0.04639800       0.03233510      -0.00837885
O        7.94777000      14.77756000      22.52040000      -0.05598760       0.07121380       0.02635270
H        8.71057000      16.32756000      21.92350000       0.01784080      -0.02029200       0.00452313
H        8.55527000      13.22766000      22.14910000       0.03880470      -0.05834270      -0.02988720
O       10.79620000      19.10006000      23.24456000      -0.10354300      -0.01245380       0.11376500
H       12.23630000      19.73526000      22.65466000       0.08671060       0.03338980      -0.03304530
H       10.82370000      19.66216000       1.25263000      -0.00375864      -0.02529850      -0.07017310
O       12.82983000       2.84441000       7.62388000       0.07759240       0.02479760      -0.04906310
H       11.45813000       2.36642000       8.45457000      -0.08257360      -0.02879910       0.04912090
H       12.46923000       2.62907000       5.80915000       0.01039340       0.00337868       0.00495738
O       12.72943000       2.85697000       2.49604000       0.10595500      -0.02842200      -0.00294366
H       11.08483000       3.00977000       2.08264000      -0.07202270       0.00643564      -0.03158220
H       13.79963000       2.06917000       1.05004000      -0.03688910       0.02507680       0.02991930
O       13.78560000      19.89736000      12.35523000       0.04404290      -0.00586303      -0.00080012
H       14.27920000      18.19256000      11.76103000      -0.02874110       0.01806490       0.00414214
H       12.09850000      20.18866000      12.91223000      -0.01792410      -0.01597110       0.00186238
O        2.30187000      14.78430000      10.77637000       0.03118770      -0.01247050       0.06096440
H        2.13827000      13.00140000      10.44307000      -0.00734050      -0.00264388      -0.01841020
H        3.43147000      14.50860000      12.43287000      -0.03326770       0.01126200      -0.04351430
O        0.44851100       1.15689000       1.02507000       0.03885740       0.03759550       0.01248780
H        1.46127000       2.03614000       2.44342000      -0.02604870      -0.02868580      -0.03837470
H        1.58927000       1.18933000      23.43388200      -0.01492940      -0.00982706       0.03510700
O       19.26596000      20.06820000       6.59477000      -0.00228456       0.04575060       0.00034402
H       20.13126000      21.20460000       5.34687000      -0.01681260      -0.02066760       0.02266240
H       18.21526000      21.22620000       7.76067000       0.01999650      -0.02011050      -0.02701890
O       16.10356000      10.76390000       0.72967000      -0.00486744      -0.00719357      -0.01674920
H       15.26336000      10.31510000      23.07350000       0.02038530       0.00477192       0.02757880
H       17.59276000      11.83520000       0.32367000      -0.02157850      -0.00629752      -0.00724333
O        7.45743000      15.20884000       3.73943000       0.00780571       0.00588199      -0.03382250
H        6.04553000      14.63314000       4.63323000      -0.01690140      -0.00760972       0.01770950
H        7.02043000      14.85394000       1.93953000       0.01476610       0.00684255       0.02041610
O       20.51954000      19.80670000      16.52157000      -0.02379270      -0.02623640       0.01961030
H       20.05624000      21.00720000      15.32217000       0.00400268       0.03567420      -0.02608030
H       18.83264000      19.27650000      17.06197000       0.00335359      -0.00856273       0.00455299
O        7.12284000       3.93223000       1.68947000      -0.03984900      -0.10639400      -0.01733800
H        6.26644000       2.58163000       2.91507000       0.02531560       0.06029760      -0.02940060
H        6.81224000       2.90403000      23.95321800       0.02023780       0.04672750       0.04304960
O        6.41567000      18.55810000      10.18933000      -0.05552220       0.05003440       0.01906330
H        7.55647000      17.19330000       9.99623000      -0.00752596      -0.03492740      -0.00054857
H        4.52967000      18.24200000      10.48103000       0.05961090      -0.01707330      -0.02209780
O        8.63153000       7.47417000      11.81584000       0.00269145       0.00379172      -0.02937270
H        8.28193000       8.07325000       9.98724000       0.00409765      -0.00912057       0.02775080
H        9.92803000       6.20453000      11.63204000      -0.00636785       0.00252109       0.00224594
O        7.64663000       2.60537000      20.33440000       0.00479044       0.02695620      -0.02639420
H        8.49345000       1.24044000      19.48951000      -0.00345495      -0.00188193       0.00381908
H        7.73421000       4.05802000      19.07328000      -0.00479610      -0.02933490       0.02522100
O       20.19387000       3.97814000      22.93860000       0.01843580      -0.02608890      -0.02903830
H       19.76457000       4.78591000       0.44697000      -0.02780220       0.03209060       0.04041130
H       21.69167000       3.12321000      23.55170000       0.00654520      -0.00837137      -0.00778794
O       20.31989000      13.77814000       4.92667000       0.00090597       0.07044010      -0.03054560
H       19.38362000      15.39234000       4.20527000       0.01456760      -0.05013500       0.01836390
H       22.06630000      14.52174000       4.71997000      -0.01715730      -0.01658260       0.01723330
O        9.05363000      13.85357000       9.74213000       0.01245930      -0.02772260      -0.04850570
H        8.30266000      12.43437000       8.57959000       0.02221990       0.03615680       0.03043910
H       10.80210000      14.28197000       8.99082000      -0.03253210      -0.00544211       0.01621720
O        7.68793000      20.80610000      19.32010000      -0.05584400      -0.06667400      -0.00683091
H        6.39643000      19.00000000      19.27040000       0.03323950       0.06664330       0.00291894
H        8.53313000      20.37980000      20.87130000       0.01336910       0.00529227       0.00809898
O        7.65167000       8.88187000       2.31274000      -0.00920594      -0.02300440      -0.00860574
H        7.63817000       6.91527000       2.49184000      -0.01663220       0.05249200      -0.02480410
H        6.23467000       9.65057000       1.28284000       0.02122650      -0.02859400       0.03063440
O       14.33420000       8.21087000      19.50940000       0.00201225       0.01682680       0.03067580
H       14.81240000       9.75067000      18.72820000       0.00423614       0.00617713      -0.01903700
H       13.72860000       6.92557000      18.34210000       0.00117236      -0.00333619      -0.00248815
O        2.88972000      23.61876000      21.11210000      -0.08409800       0.05770430       0.03836920
H        1.80471000      22.28156000      20.62250000      -0.03930970      -0.02128290      -0.00257564
H        4.31777000      23.05256000      20.52660000       0.12642300      -0.02895040      -0.04156200
O        1.04964000      16.07470000       4.39423000       0.03317060      -0.06829050       0.05573370
H        1.85394000      15.28140000       3.03054000       0.02067360      -0.01981510      -0.01689540
H        0.19387400      17.27430000       3.60302000      -0.05159420       0.09049960      -0.04545260
O        0.94236400       2.21735000      13.26170000       0.00225099      -0.07437420      -0.03389980
H        1.21503000       0.23445000      13.30730000       0.00425867       0.04960110      -0.00782162
H        0.74564500       2.43827000      14.98450000       0.00075238       0.02199110       0.04968600
O       13.27156000       4.21154000      17.19046000       0.02540590      -0.00094582      -0.05299840
H       14.94756000       4.14394000      16.20466000      -0.03229140       0.01914240      -0.00101107
H       13.77436000       2.93854000      18.29586000      -0.00266184      -0.02298760       0.04342390
O        4.21039000       2.08194000       5.62853000      -0.06821150       0.05155000       0.00160110
H        3.20413000       2.67744000       7.12453000       0.02462850      -0.00340712      -0.02998740
H        5.22017000       0.85734000       6.27693000       0.04190200      -0.04752930       0.03003070
O       13.46046000      13.97487000       3.77763000      -0.00797671       0.01770020      -0.01599740
H       14.10306000      12.51007000       2.83391000      -0.00632446       0.00874517      -0.00179146
H       12.16246000      14.82667000       2.73211000       0.01568950      -0.02225780       0.01277240
O       19.45000000      11.54737000      13.32360000      -0.01767910       0.01935370      -0.03456900
H       20.40100000      13.12587000      13.74290000      -0.01367740      -0.02192860      -0.01408340
H       18.58030000      11.70717000      11.47070000       0.02699090      -0.00540122       0.05159360
O        7.16693000       9.27633000       7.43708000      -0.07688920       0.04410680       0.10299200
H        7.23743000       8.79043000       5.81686000       0.01196880      -0.01915700      -0.09211170
H        5.13733000       9.66443000       7.66165000       0.06507920      -0.00415495      -0.01303030
O        1.40406000       4.03247000      18.55130000      -0.03336570       0.01996620      -0.02123860
H        1.73236000       2.70103000      19.68580000       0.01651900      -0.01886780       0.01153840
H        2.85726000       5.03148000      18.27150000       0.01753360       0.00065224       0.00186464
O        1.92403000       9.98023000       7.94817000       0.00673467       0.03070970      -0.00513664
H        2.63023000       8.36453000       8.61527000      -0.04466020      -0.00519128      -0.01796960
H        0.72903000      10.42063000       6.49517000       0.03238520      -0.04181780       0.03120080
O       13.58260000      15.84820000       9.18367000       0.01340630       0.00212296      -0.01378460
H       14.93870000      14.54280000       9.08967000      -0.01126860       0.00872503      -0.00753076
H       13.58680000      16.90310000       7.63987000       0.00675845      -0.01814940       0.01785410
O        1.76143000      20.93725000      13.71787000      -0.01059160       0.00039811      -0.02232350
H        3.31763000      20.03578000      13.71387000       0.00579214       0.00160256       0.00712898
H        1.05833000      20.45903000      12.04017000      -0.00103231      -0.00014846       0.01403040
O       15.73657000       7.14656000       9.72377000      -0.04328800      -0.11133900       0.02913670
H       14.61697000       5.52300000       8.96967000       0.04154450       0.06734130       0.01951380
H       16.21397000       6.26308000      11.47637000      -0.00394718       0.03776910      -0.05071410
O       15.22118000      13.01756000      16.07796000      -0.06729620       0.00463481       0.01905570
H       16.38755000      12.50036000      14.91505000       0.07076790      -0.02140710      -0.03776690
H       13.68843000      12.48626000      15.10188000      -0.00008326       0.01445260       0.02479120
O        3.52804000       5.55603000      10.34473000      -0.02044720      -0.02536350       0.03244860
H        4.96414000       6.21793000      11.25633000       0.00202944      -0.00760848      -0.00117593
H        2.60654000       4.34043000      11.63433000       0.02110740       0.03298180      -0.03392820
O       16.35440000      23.19598500       9.81487000       0.03580800       0.02464020      -0.03243920
H       15.11160000       0.35309400       9.11852000       0.00026205       0.00527562      -0.00432823
H       15.50140000      22.07181000      10.86520000      -0.03042860      -0.03129240       0.02697740
O       15.19266000      20.12975000      22.02877000       0.00726009      -0.00182521      -0.04384220
H       15.32746000      18.81041000      20.67207000      -0.00412412       0.02046080       0.00166802
H       16.30796000      19.51702000      23.25447000       0.01378240      -0.01058530       0.02484090
O        4.89994000      13.47463000      14.89513000      -0.04856920       0.09225360      -0.06567900
H        4.48438000      12.49323000      16.18431000      -0.02781060      -0.06795170       0.08720140
H        6.53888000      13.27203000      14.53316000       0.08947390      -0.01574110      -0.01624700
O       22.48180000      15.32120000      14.78080000       0.10854800      -0.16065700      -0.06596320
H       21.69450000      16.68630000      15.06620000      -0.07642290       0.15572300       0.02528280
H       23.46880000      15.29880000      13.10920000      -0.02106320       0.00934569       0.03861870
O        9.18926000      20.44570000      14.37024000      -0.03014910      -0.02192360      -0.14739500
H        8.79727000      20.59610000      15.96520000      -0.02483430       0.00903633       0.13318100
H        7.51244000      19.91900000      13.48743000       0.05753900       0.01168640       0.01386950
O       22.64490000       9.81864000       2.98117000      -0.01504900      -0.00450933      -0.00116700
H       21.60450000      11.39924000       3.19647000       0.00098872      -0.03430580       0.00315231
H       21.56300000       8.26714000       3.12007000       0.01295790       0.03702090       0.00069720
O       18.01327000       6.70302000       3.74839000      -0.04455080       0.02466330      -0.02002030
H       16.92660000       8.22128000       3.01890000       0.03235180      -0.05000190       0.01572650
H       16.80827000       5.31455000       4.08376000       0.01426500       0.02446320      -0.00453034
O       15.35180000      17.81896000      17.42240000       0.02117700      -0.04809420      -0.00169826
H       14.73640000      18.93276000      16.12020000      -0.00195925      -0.01262060      -0.00574984
H       15.58760000      15.78896000      16.80630000      -0.02129730       0.05821290       0.00902245
O        4.14225000      17.02890000      19.46887000       0.02692700      -0.02431120      -0.07879460
H        4.56941000      15.83180000      20.80657000       0.00503026      -0.00365265      -0.01116860
H        4.66232000      16.15220000      17.57277000      -0.02678720       0.02133510       0.08073350
O       17.27607000      17.24637000       2.17558000       0.00203555      -0.00167982       0.00092594
H       17.39257000      18.91527000       2.94561000      -0.00840422      -0.02102370       0.00975288
H       15.88657000      16.12747000       2.85295000       0.00699641       0.02155890      -0.00236049
O       22.77450000      10.93280000      18.17986000      -0.06369330       0.02452730      -0.02866030
H       21.47860000       9.47312000      18.46616000       0.03115800       0.02784580      -0.01340450
H       21.89150000      12.13030000      16.89356000       0.03145430      -0.03619910       0.03841090
O       11.30753000      19.26957000       4.79977000      -0.06023720      -0.00348275       0.05478030
H       10.21793000      17.67867000       5.06376000       0.02105330       0.03493380      -0.01485930
H       10.37753000      20.46387000       6.07096000       0.03360980      -0.03135100      -0.04266640
O        7.89256000      23.52026000       8.49527000       0.03796190       0.04021310      -0.07746590
H        7.19784000      22.00726000       8.76777000      -0.03419400      -0.09728140       0.00006562
H        7.64057000       0.13193000      10.06227000      -0.00166576       0.05116750       0.07818120
O        3.08816000      11.80737000       0.56152600      -0.02158070      -0.00473354       0.01062880
H        1.38783000      11.18007000       1.05930000       0.02278910      -0.00094463      -0.00226485
H        3.25440000      11.30787000      22.79735000      -0.00075092       0.00475017      -0.01158800
O       10.21673000      11.85413000      14.23010000       0.00655619       0.04364010      -0.04447350
H        9.97243000      10.30673000      13.35830000      -0.00438230      -0.03195340       0.00286364
H       10.15633000      12.84393000      12.48410000      -0.00429618      -0.01102750       0.04398340
O       17.60123000       4.88686000      14.51850000      -0.02463410      -0.03361830      -0.01280520
H       18.23768000       6.02455000      15.77880000       0.01519740      -0.00842172       0.00650161
H       18.06602000       3.02046000      14.67870000       0.00823569       0.04153030      -0.00575864
O        3.49137000      11.06253000      18.99767000      -0.00013217       0.04629370       0.01284560
H        1.73567000      11.29343000      18.42691000      -0.00833094      -0.01052680       0.00808372
H        3.93217000       9.41713000      18.64752000       0.01244430      -0.04299630      -0.01053770
O       20.47470000       6.75653000      18.31577000       0.05664920       0.02293780      -0.09676380
H       20.12700000       6.19654000      19.82467000      -0.04932220      -0.04169680       0.12399900
H       22.19630000       6.02183000      18.30067000      -0.00885066       0.00534310      -0.01760930
O       15.37670000       1.69637000      21.69147000       0.06512380      -0.06992430      -0.00435487
H       17.37400000       1.83587000      21.99407000      -0.06638320       0.00762716      -0.00880683
H       15.27110000      23.70380000      21.27547000       0.00067034       0.05822280       0.01832160
O        9.52853000       9.52359000      21.09920000       0.00104842       0.05061650      -0.07362780
H       11.31923000       9.49688000      20.77250000       0.00573921      -0.01230540       0.00074600
H        9.14733000       8.65484000      22.50320000      -0.00905788      -0.04053260       0.07259460
