192
Lattice="24.67988 0.0 0.0 0.0 24.67988 0.0 0.0 0.0 24.67988" Properties=species:S:1:pos:R:3:force:R:3 TotEnergy=-1103.42338 cutoff=-1.0 nneightol=1.2 pbc="T T T"
O        0.86072000      21.82454000      13.37836000      -0.10407800       0.03085530       0.03648700
H       23.69480000      20.97958000      13.30406000       0.04421830       0.03748390       0.00939959
H        1.70722000      20.68732000      12.47846000       0.06279030      -0.06094120      -0.05126710
O        4.07194000      22.35782000      22.27087000      -0.00807090      -0.02088310       0.00117394
H        3.28234000      23.81352000      22.99659000       0.00138048       0.01528580       0.00580049
H        3.38814000      22.18232000      20.59085000       0.00671950      -0.00090851      -0.00192064
O       12.93320000       2.51097000      17.48970000       0.00457390       0.00107125       0.01671800
H       13.60940000       3.43765000      18.99120000      -0.00127621      -0.00068235      -0.01002210
H       12.96450000       0.79473600      18.06750000       0.00259436      -0.00972162      -0.00361345
O       20.41259000      12.78308000      22.47215000       0.01504820       0.02955470      -0.06227120
H       20.19502000      12.18478000      20.61167000       0.00946941       0.01853610       0.05358320
H       20.85023000      14.76061000      22.30776000      -0.01489820      -0.04965750       0.00485736
O        4.52026000      10.32142000      17.26350000      -0.05147420       0.05792060       0.05463070
H        5.89413000      10.71962000      18.30650000       0.02238860      -0.00017024       0.02379450
H        5.08209000       9.22282000      16.14200000       0.03070450      -0.07313170      -0.07869850
O       18.20142000      11.28490000       8.23311000       0.04947520       0.04740340       0.03664890
H       18.56423000      13.17460000       8.23229000      -0.02736150      -0.04203400      -0.00544709
H       17.01332000      10.87690000       7.00759000      -0.02853140      -0.00325779      -0.03134580
O       20.46952000       5.17082000      14.87630000       0.05116720      -0.01046900      -0.00065657
H       22.33152000       4.64682000      14.57940000      -0.04259030       0.01001570       0.00912087
H       19.56132000       3.68992000      14.23590000      -0.00788593       0.00196352       0.00487091
O        2.72827000      14.40906000       7.86885000      -0.05914580       0.07912590      -0.02468910
H        3.58363000      12.95436000       7.92939000       0.05046160      -0.06922430       0.02076710
H        3.25544000      15.68386000       9.11482000       0.00799094      -0.01265280       0.00005780
O        7.05532000      15.33456000      18.53430000      -0.00344590       0.04507010      -0.02741510
H        5.28962000      15.81966000      18.60080000       0.00897250      -0.00681608      -0.00067165
H        7.36122000      13.79016000      19.37210000       0.00039645      -0.02091230       0.02412370
O        9.59016000      22.71956000      23.88116000      -0.09843960       0.02937220      -0.08688880
H       11.06390000      22.64786000      24.55686000       0.16760400       0.00653983       0.02712970
H        9.00493000      22.07006000       0.65768000      -0.07446050      -0.03219530       0.06436190
O       10.48628000       2.49543000       9.76994000      -0.02553450       0.04566090       0.07413890
H       12.26258000       2.85370000       9.67865000       0.00061678      -0.00069942      -0.00423300
H        9.94268000       3.65865000      11.52140000       0.02623970      -0.04484330      -0.05993310
O       13.36038000       4.18372000       2.91574000       0.06880780      -0.00723102       0.00329751
H       11.91768000       4.06722000       1.85754000      -0.01527850      -0.00141412      -0.01420690
H       14.92293000       3.63512000       1.93194000      -0.04783470       0.00978197       0.01652160
O       12.81650000      15.86506000      10.69758000      -0.05749900      -0.06578930      -0.02056270
H       12.49980000      14.98816000       8.94718000       0.01408470       0.02497770       0.04228660
H       11.49350000      14.76436000      11.71018000       0.04273560       0.04036630      -0.02260890
O        2.80082000      14.56650000      15.71132000      -0.04277730       0.01634930      -0.00824052
H        1.02162000      13.96010000      15.85552000       0.02870910       0.01053890      -0.00330126
H        3.73212000      13.08900000      16.16572000       0.00543703      -0.02058460       0.00224515
O        3.10673000       2.16079000      24.52304300      -0.05711020       0.02080450       0.06208000
H        3.78209000       1.67254000       1.51607000       0.00562140      -0.00522712      -0.01983700
H        1.35658000       2.73787000       0.60823100       0.05047940      -0.01298180      -0.04231530
O       16.54376000       3.92502000       8.02472000      -0.06538030       0.01046160      -0.05416460
H       17.43006000       2.78922000       6.96942000       0.03508990      -0.02114150      -0.00102856
H       15.16486000       4.03312000       6.56602000       0.02684060       0.01166660       0.05526960
O       16.00706000      12.70190000       0.07932000       0.05555520       0.00531763       0.03017730
H       14.90826000      12.05940000      23.60470000      -0.05254710      -0.02115390      -0.04380600
H       17.65356000      12.27330000      23.87290000      -0.01201650       0.01833710       0.01742540
O        4.24418000      16.12194000       2.80468000      -0.00895971      -0.05451420      -0.00034939
H        3.92648000      15.30774000       4.51228000       0.00167552       0.01776780      -0.02844600
H        4.32868000      14.56294000       1.61118000       0.00386879       0.03566700       0.03373990
O       20.71084000      20.59530000      12.97422000      -0.00259644      -0.03999880       0.02006180
H       19.90744000      22.20180000      12.95632000      -0.01007280       0.00869513       0.00411240
H       19.97994000      19.50590000      14.37202000       0.00560552       0.03015230      -0.02046190
O        6.96054000       8.18488000       4.65178000       0.05039050       0.01041540      -0.01862530
H        6.58174000       6.65318000       5.67417000       0.02001510       0.00801539      -0.02660350
H        8.77824000       8.24498000       3.82977000      -0.06366310      -0.02068390       0.04026820
O        4.25142000      17.72410000      11.47448000      -0.02075180      -0.05737730       0.05657920
H        5.95322000      18.17800000      11.26488000       0.03201400       0.01884170      -0.01159780
H        4.36712000      16.42870000      13.00508000      -0.01982120       0.04112020      -0.04309270
O        9.78808000       4.82184000      14.56944000       0.00051074       0.05976020      -0.02681840
H       10.66268000       6.62968000      14.55284000      -0.01855310      -0.05670570       0.01265150
H       10.31868000       3.75252000      15.96234000       0.01714680       0.00998816       0.00319177
O        9.29790000       4.02311000      24.30489000      -0.08603380      -0.00235449      -0.02902670
H        7.20341000       4.15886000      24.00643600       0.09302420      -0.01009200       0.01530120
H        9.80957000       2.66387000      23.15130000      -0.01101920       0.01168690       0.01308690
O       19.79802000       1.73340000       4.33232000      -0.02063210      -0.11368000       0.02824520
H       20.31712000       3.28280000       4.05612000       0.03781420       0.12421900      -0.02294650
H       21.30992000       0.98475600       5.09412000      -0.01713950      -0.00910907      -0.00881321
O       23.17538000      10.15754000       7.36692000       0.09222540      -0.06556140      -0.01247800
H       21.66262000      10.68644000       7.77092000      -0.12338500       0.02659900       0.03494890
H       23.92733200      11.62824000       6.83692000       0.03459550       0.03414940      -0.01742750
O        8.77561000      13.21042000      14.07850000       0.06253740       0.04753380       0.12229900
H        7.61685000      13.28152000      12.92180000      -0.09009990      -0.01366770      -0.10533800
H        7.99875000      14.39992000      15.44690000       0.02887480      -0.03011700      -0.01591500
O        8.93518000      20.24840000      19.49750000       0.00353115       0.13900500      -0.03900030
H        9.00948000      18.61250000      19.48500000      -0.00857138      -0.13172400       0.01286970
H        8.27888000      21.13970000      20.91460000      -0.00307197      -0.00774802       0.01951020
O        4.66572000      11.04762000       0.81154000      -0.00497152       0.05433180      -0.03942860
H        5.71482000      10.13402000       1.92804000      -0.01433950      -0.03090430       0.01769940
H        3.03802000      10.55712000       0.09414000       0.00860702      -0.02606610       0.02027450
O       12.90090000       9.79732000      20.53770000       0.00595190      -0.00955140       0.03405160
H       12.25850000       9.90822000      18.87810000       0.00253443      -0.00234890      -0.02909060
H       13.48560000       8.05372000      20.83780000      -0.00671184       0.01354060      -0.00155873
O        4.27025000      22.52906000      17.25580000       0.11467200       0.01700210       0.10834900
H        3.63209000      22.29586000      15.78400000      -0.08082020      -0.02079240      -0.13361200
H        6.11367000      22.33976000      16.79290000      -0.03573050       0.00384147       0.02315770
O        0.28937800      19.58010000       0.90172400      -0.09347980       0.04831860      -0.00146917
H        1.29166000      18.34450000       1.40320000       0.06895490      -0.08079980       0.03933140
H        1.21360000      20.48260000      24.42003200       0.03339540       0.03294790      -0.03561250
O        0.21353200       2.68786000      13.55060000       0.01615220       0.14526400      -0.02614370
H        0.45033500       3.54925000      11.78440000       0.00240635      -0.01239260       0.04985430
H        0.02644700       1.13705000      13.03870000      -0.01535130      -0.13437400      -0.02841410
O       15.22586000       5.03804000      21.30816000       0.04511210       0.00138912      -0.02127100
H       16.76316000       5.77214000      20.13736000      -0.03590640      -0.01808200       0.04627810
H       16.05496000       3.85634000      22.57866000      -0.01095720       0.02166480      -0.02397160
O        6.32249000       3.22394000       6.44568000      -0.06790880       0.00054594      -0.03899190
H        7.45027000       2.84374000       7.67188000       0.05919130      -0.01406380       0.05040910
H        5.41327000       1.60954000       6.12008000       0.00876701       0.01239600      -0.01044320
O       11.33996000      13.54322000       5.87588000       0.00213879      -0.11463700       0.09456170
H       12.11356000      11.90252000       5.22459000      -0.01131620       0.02194150       0.02882200
H       11.55866000      14.37552000       4.49704000       0.01143440       0.09206490      -0.11887400
O       12.27490000       9.99492000      15.21840000      -0.04878880       0.00477640      -0.01288030
H       14.00400000      10.31802000      14.84140000      -0.00253440       0.00529246      -0.00958407
H       10.96820000      11.30522000      14.43970000       0.04120040      -0.02980250       0.02314800
O        6.35368000      10.95968000      10.18090000       0.03167090      -0.01434540      -0.06345610
H        7.43318000      10.40108000       8.68052000      -0.02284130       0.02857380       0.02890930
H        5.99088000       9.26528000      10.71380000      -0.00999607      -0.00797459       0.02696880
O        2.01746000       2.65016000      18.49930000      -0.03408000       0.01434890      -0.03131620
H        3.15486000       1.38023000      18.97830000       0.01590110      -0.01860620       0.00147418
H        1.58266000       2.39751000      16.66640000       0.01259590       0.00341889       0.03172820
O        2.13468000       5.14458000       9.22312000      -0.00279123      -0.04545490       0.04079610
H        3.22308000       4.11518000       8.20802000       0.01145300       0.00187247      -0.01190760
H        1.67648000       6.58648000       8.39602000      -0.01738350       0.04557710      -0.03343920
O       16.84110000      18.05800000       1.67602000      -0.01826620      -0.04450940      -0.02942770
H       17.07700000      18.63450000       3.30572000       0.00932509       0.01695110       0.04238210
H       16.17580000      16.31990000       1.93752000       0.01209390       0.02061090      -0.01299590
O        3.85308000      23.89209700       4.38802000      -0.04639960      -0.04194200       0.03372980
H        4.95308000      22.38168000       4.34352000       0.00914927       0.01201850      -0.00386227
H        2.27728000      23.03665000       5.21772000       0.03513690       0.03252910      -0.02536020
O       18.16412000       9.51258000      13.51892000       0.00943688      -0.01346230       0.08233130
H       19.25622000       8.19452000      14.31962000      -0.02152300       0.01216930      -0.00872931
H       18.56362000       9.22743000      11.88242000       0.00559729       0.00145549      -0.07582350
O       18.23797000      18.37956000      17.40339000      -0.03049680       0.10488200      -0.03498860
H       19.44768000      18.45516000      18.59451000       0.04926930      -0.01285670       0.05526140
H       17.73609000      16.91356000      16.75084000      -0.01934750      -0.09673000      -0.02108960
O        5.17874000       6.90208000      12.89038000       0.01345910      -0.05164800       0.00237153
H        6.48294000       5.54088000      13.50878000      -0.03889920       0.04034380      -0.01895680
H        3.84784000       6.10458000      11.75438000       0.03043110       0.00847841       0.02468770
O        9.52364000      22.89449000      14.29530000      -0.06130590      -0.03270720      -0.07674190
H        9.74048000      24.50398900      13.69430000       0.01968940       0.04560920       0.00166209
H       10.16350000      22.24728000      15.71460000       0.04248640      -0.00832445       0.06790850
O       14.68646000      21.85258000      23.69212000       0.00248299      -0.00239669       0.00701415
H       14.21876000      21.75457000      21.92342000       0.00353507      -0.01262820      -0.00111015
H       15.16786000      20.20475000      24.42452000      -0.00232531       0.01575970      -0.01312180
O       16.13340000      13.99488000      15.21124000       0.03159410      -0.04145640       0.13229800
H       15.77150000      14.68883000      13.75558000      -0.02249450       0.02653170      -0.11276600
H       16.84770000      12.28508000      15.30750000      -0.00496822       0.02483890      -0.02624950
O       22.85950000      17.59530000       8.20787000       0.03529400      -0.02668210       0.07343630
H       23.53020000      18.10640000      10.22530000      -0.02977090      -0.03257420      -0.09941910
H       23.55880000      15.83750000       7.68429000      -0.00730670       0.05563140       0.02717080
O       13.45620000      21.56030000      18.37443000       0.02769680      -0.02520720      -0.02906920
H       11.58960000      21.21890000      18.56768000       0.02302610      -0.01747650       0.00479292
H       14.51500000      20.19360000      17.39956000      -0.04107300       0.04405710       0.03699550
O       23.21240000      21.92082000       5.49732000       0.01080730      -0.01493070      -0.08567610
H       22.98580000      20.27342000       6.22172000       0.00017571      -0.00388712       0.01618400
H       23.42630000      21.28292000       3.55042000      -0.00307691       0.02899820       0.06646400
O       14.70242000       9.71479000       4.27116000       0.03454940      -0.00859232      -0.05323710
H       15.42370000      10.60260000       2.66553000      -0.01886560      -0.00764410       0.03642730
H       15.19345000       7.95423000       3.80650000      -0.02015820       0.02183000       0.01545900
O       17.48210000       1.57178000      12.84420000      -0.03036700       0.00901943       0.01588090
H       17.28420000       2.82648000      11.47100000      -0.01093510      -0.01847310       0.00964279
H       15.86270000       1.53408000      13.88410000       0.03760990       0.00639234      -0.02643510
O       22.31598000      11.69740000      16.96332000       0.07835550       0.01888920       0.08381940
H       22.19788000      10.06160000      17.65952000       0.00705829      -0.02056010       0.01016770
H       21.22884000      11.73010000      15.72792000      -0.08216750       0.00450691      -0.09501610
O       21.01852000      18.00892000      22.61161000      -0.02360950      -0.01160020       0.01197130
H       22.52502000      18.30982000      23.61768000      -0.00122370       0.00575861       0.00181376
H       19.57542000      18.13312000      23.82298200       0.02049720       0.00089175      -0.01521670
O        0.57622000       7.54626000      19.25416000      -0.14251300      -0.09151590       0.05143550
H        1.68712000       8.66029000      18.81496000       0.11164800       0.06612770      -0.04568370
H        0.60892000       5.69617000      19.26386000       0.03376380       0.02496070      -0.01203390
O        7.34428000      20.06032000       4.33862000      -0.00928001      -0.03840040       0.02222430
H        6.30848000      18.56832000       3.58437000       0.02757180       0.02856810       0.02362400
H        7.88788000      19.63672000       6.15296000      -0.01687470       0.00982444      -0.04718270
O        8.98347000      19.83326000      10.02192000      -0.06857640       0.12575100       0.04379220
H       10.28090000      18.85056000      10.00792000       0.11250300      -0.10893700      -0.01354760
H        9.86461000      21.09686000      11.29792000      -0.04805510      -0.02380520      -0.03213210
O       22.10392000       6.45082000       3.79684000      -0.00765121      -0.00218346       0.00474457
H       22.04541000       7.59372000       5.27558000       0.00760502      -0.00489221      -0.03078620
H       22.36807000       7.33292000       2.18843000       0.00436283       0.00078366       0.01857740
O       17.64835000      16.73660000       7.54637000       0.04165030      -0.01081970      -0.02020860
H       16.37322000      17.62311000       8.37684000      -0.01616920       0.01396020       0.02050210
H       19.34444000      17.38738000       8.01470000      -0.02077200      -0.00086114      -0.00160592
O       19.37748000       7.24697000      19.60280000      -0.00134775      -0.01088190      -0.07574090
H       20.47548000       6.59322000      20.86470000       0.01432920      -0.01117990       0.00199210
H       19.86825000       6.46286000      17.74110000      -0.00733640       0.01380190       0.06540320
O       24.32220000       9.00378000      23.97878300      -0.04598390       0.10536500       0.02457370
H       24.35860000       8.24228000      22.39558000       0.00883653      -0.02459150      -0.04155070
H       23.28810000      10.77378000      23.44027000       0.03325570      -0.07012800       0.02523860
O       22.72220000       3.23894000      22.45682000      -0.03408240      -0.03576250      -0.01896350
H       21.10580000       2.12838000      22.46992000       0.04910280       0.03146160      -0.00260005
H       23.82100000       2.66324000      21.03202000      -0.01822810       0.00258753       0.02226330
O       17.34000000       1.48782000      24.28182000       0.04561570       0.03742990       0.04332260
H       18.25820000       1.37002000       1.32954000      -0.02314850      -0.00828147      -0.04099780
H       16.33590000       0.05922000      23.93322000      -0.01234090      -0.03538100       0.00610703
O        7.81838000      11.35460000      21.12720000      -0.08829500       0.04762860      -0.05697720
H        9.37238000      10.77020000      21.11800000       0.10625000      -0.04742550       0.02163810
H        6.74828000      11.28610000      22.50960000      -0.01324250      -0.01136680       0.04713200
