192
Lattice="24.27368 0.0 0.0 0.0 24.27368 0.0 0.0 0.0 24.27368" Properties=species:S:1:pos:R:3:force:R:3 TotEnergy=-1103.4271 cutoff=-1.0 nneightol=1.2 pbc="T T T"
O       22.23770000      20.53933000      17.86576000      -0.01817950      -0.02812740      -0.02527900
H       20.50060000      20.78144000      17.09286000       0.03211130       0.00265986       0.01282470
H       22.80610000      18.91972000      16.99516000      -0.00039751       0.03200900       0.02335990
O       21.92392000      21.76822000      23.21653000       0.01540800      -0.02791810      -0.04312780
H       23.07552000      23.18952000      23.27434400      -0.00441193      -0.00265867       0.00254350
H       22.20062000      20.94992000      21.45102000      -0.01178880       0.02472470       0.03579650
O       10.12520000       3.53116000      17.08180000      -0.03158140      -0.04560390       0.00347197
H       11.90150000       3.22564000      17.60400000      -0.02096960      -0.00108177       0.00246243
H        8.94219000       1.96572000      17.30090000       0.05184260       0.05105590      -0.00515742
O       18.41370000      15.60686000      21.59255000       0.06206340      -0.01688490       0.07465770
H       20.18864000      14.83480000      21.53742000      -0.04389070       0.01461030      -0.02372310
H       18.53849000      16.06651000      23.58175100      -0.02546530      -0.00123557      -0.06332840
O        5.23416000       8.86992000      19.60760000       0.04935970       0.03619900       0.05949340
H        6.99434000       9.79582000      20.50680000      -0.06313830      -0.02735280      -0.03070360
H        5.66077000       8.89972000      17.88250000       0.01195350      -0.00116920      -0.03091610
O       20.01861000       8.42543000       7.06828000      -0.05009690       0.00565443      -0.04335770
H       19.06442000       7.13619000       8.06888000       0.01304260       0.01325520      -0.00386984
H       18.66872000       8.66636000       5.60137000       0.04349420      -0.01699040       0.03420870
O       20.51592000       2.19392000      10.98970000      -0.04484630       0.03736590      -0.01099370
H       22.15482000       2.09552000      11.57740000       0.03958810      -0.01910800       0.01433280
H       19.55912000       0.68072000      10.82750000       0.00914201      -0.02359990       0.00393896
O       22.09620000      16.05096000       6.79809000      -0.07614490      -0.03791030       0.00345582
H       22.00714000      16.62086000       5.08018000       0.01155450       0.00636222      -0.00371150
H       20.24152000      15.05726000       6.87468000       0.05922970       0.02524100       0.01018480
O        7.23222000      16.04636000      18.04060000       0.03859510      -0.06505690       0.05554290
H        6.26592000      15.60166000      16.62170000      -0.02412800      -0.01428840      -0.02382420
H        7.55442000      14.26786000      19.10610000      -0.01622040       0.06920330      -0.03189450
O        9.02694000      21.73586000      23.04226000       0.09011030       0.06206420      -0.08045780
H       11.09520000      21.53936000      22.81866000      -0.07018940      -0.00237759       0.02148390
H        8.46026000      20.52976000      24.11246000      -0.01067620      -0.05404970       0.05479340
O       14.57816000       1.55581000       7.75301000      -0.03629180      -0.01058140      -0.05795560
H       13.91418000       1.81635000       5.91864000       0.02151200       0.00540964       0.04497270
H       13.11178000       0.71282000       8.49563000       0.00315608       0.00530691       0.01036030
O       13.19968000       4.31472000       3.33334000      -0.00866070       0.02315440       0.02993790
H       11.38128000       4.74972000       3.20044000       0.01132060      -0.01677110       0.00285184
H       13.81358000       3.36302000       1.97984000      -0.00108092      -0.01793700      -0.03400030
O       15.66250000      17.73076000      10.15178000       0.04876530      -0.02174680       0.01084330
H       17.37060000      16.81416000      10.01038000      -0.04783940       0.02160150      -0.00183697
H       15.63870000      18.10656000      11.94438000      -0.00463621       0.00010881      -0.01007540
O        4.27712000      14.59060000      13.11282000       0.10914200      -0.01712020      -0.04413240
H        2.92752000      15.21520000      13.86852000      -0.09095150       0.05105580       0.05639180
H        3.65982000      13.15060000      12.29412000       0.00083586      -0.03690830      -0.01299520
O        0.40314200       1.29831000       1.58422000      -0.03923650      -0.00875718       0.00995505
H        0.02244200       0.06079400       2.94683000       0.02130220       0.01975580      -0.01728100
H        2.08571000       1.39312000       0.93514200       0.01398090      -0.01019400       0.01515710
O       18.22356000      22.56350000       8.89162000      -0.02005270       0.00162764      -0.01664550
H       16.71106000      23.48970000       8.32462000       0.01618980       0.04013840      -0.00616314
H       17.09236000      21.17990000       8.96682000       0.01017630      -0.04505800       0.01744770
O       15.15036000      11.95160000      24.12430000      -0.03573530      -0.04356380      -0.00874862
H       14.51406000      10.74350000      22.63450000       0.02727950       0.03733590       0.02612200
H       16.34376000      13.09940000      23.45120000       0.00995654       0.00839607      -0.01751890
O        3.97048000      16.04544000       4.13228000      -0.00053288      -0.02236710       0.00350180
H        3.85168000      16.20864000       6.02118000       0.00917610      -0.01153110      -0.03511500
H        3.94268000      14.22634000       3.45618000      -0.00500231       0.03883360       0.02706040
O       18.33044000      21.08600000      14.66792000      -0.05372790      -0.06933760       0.01531230
H       17.25754000      22.49020000      14.45302000      -0.00602465       0.03559350      -0.00864406
H       16.86034000      19.79160000      15.17982000       0.05784840       0.03858150      -0.00125751
O        8.14744000       4.30238000       4.07443000      -0.03649940      -0.06024160      -0.04086010
H        7.71764000       3.11848000       5.52715000       0.00414420       0.03281740      -0.02658690
H        7.32164000       3.19668000       2.42738000       0.02552780       0.03732080       0.06195040
O        5.80112000      17.58010000       9.06428000      -0.15609800      -0.08646500       0.06162890
H        7.33802000      18.08950000       8.91508000       0.14403400       0.03867590      -0.01388840
H        5.65332000      16.19950000      10.55858000       0.00195783       0.04912780      -0.04198730
O        7.64058000       8.04202000      14.89164000       0.04149510       0.04935600      -0.03878420
H        8.72658000       9.49639000      13.83014000      -0.04451930      -0.04012460       0.03662210
H        9.01098000       6.93116000      15.33924000      -0.00553639      -0.01023470       0.00779186
O        5.62134000       1.48048000       0.52072100      -0.01094080       0.01099140       0.02719970
H        5.29187000       2.47953000      23.36327400      -0.00869530       0.02682200      -0.02645510
H        6.43183000       0.07034300      24.10990700       0.02549820      -0.03268810      -0.00709530
O       20.06522000       3.57741000       0.63462000      -0.04915470       0.04826390       0.01871290
H       19.50202000       5.07297000       1.73092000       0.02172410      -0.03794850      -0.02861350
H       21.70452000       3.06056000       1.08542000       0.03098010      -0.01008290       0.01750560
O        0.18124800      11.32294000       6.77582000      -0.02370760      -0.08299900      -0.01215950
H       22.81666000      10.28394000       6.65462000       0.03534750       0.00601483       0.01383320
H       23.75092200      12.88864000       6.58282000      -0.01463530       0.06905050       0.00051006
O       10.43000000      11.84742000      12.67260000       0.01810920      -0.02808330      -0.03140300
H       10.24420000      11.33052000      10.83530000      -0.01608350       0.01917440       0.01768760
H       12.07940000      11.04632000      12.85670000       0.00135405       0.00576883       0.00987364
O        7.35338000      21.69540000      18.42860000      -0.02037500      -0.03922410      -0.04603930
H        6.93758000      19.86730000      18.22260000       0.00618127       0.02255000       0.00046566
H        8.13978000      21.63070000      20.04480000       0.01151920       0.00934107       0.04180500
O        7.84282000      10.23472000       2.29154000      -0.06290150      -0.02755980      -0.00735317
H        7.69982000       8.44102000       2.94804000       0.01102300       0.02990640      -0.01312080
H        5.92572000      10.56322000       1.88184000       0.04619260      -0.00591864       0.01647940
O       14.20370000       9.54122000      19.86420000       0.01586370       0.06279910      -0.02108440
H       15.54400000      10.06712000      18.57950000      -0.02032710      -0.00626212       0.02489600
H       14.42170000       7.80672000      19.82100000       0.00031380      -0.05849580      -0.00106447
O        2.96530000      24.01236000      17.74980000       0.10809000       0.00914358      -0.01355510
H        1.47501000      23.19376000      17.85220000      -0.06219590      -0.04643760       0.01112290
H        4.57521000      22.78456000      17.76310000      -0.04975320       0.03394030       0.00720470
O       23.60405800      18.13090000       2.54027000       0.01286250       0.01460430      -0.05161840
H        0.72782200      17.11160000       1.92971000       0.00396822      -0.00903644       0.02891920
H       23.59025800      19.19930000       0.98986200      -0.02301920       0.00796321       0.01845240
O        1.08267000       0.99181500      12.90510000      -0.02023670       0.06545740      -0.04175740
H        1.85191000       0.06305800      11.58470000       0.00941242      -0.02544630      -0.01979820
H        1.43086000       0.23502000      14.40080000       0.01800320      -0.03184920       0.06233430
O       14.86816000       4.50514000      19.03646000       0.06405640      -0.06663820       0.02576670
H       16.43476000       3.95614000      17.95486000      -0.04211870       0.02395030       0.02592620
H       15.31476000       3.34384000      20.76986000      -0.01976300       0.03901500      -0.04805440
O        5.93764000       2.07884000       8.53548000       0.02398830      -0.10272000      -0.05158570
H        5.30640000       3.31524000       9.56208000      -0.02390640       0.04133160       0.04741780
H        5.06867000       0.32984000       8.77668000       0.00496565       0.05222800      -0.00475681
O       14.09486000      14.69322000       4.40404000      -0.05510940       0.03879160       0.00030073
H       13.84376000      13.53222000       2.96160000      -0.00561077       0.01629390       0.00527173
H       12.46006000      15.87122000       4.71118000       0.06178780      -0.05178400      -0.01502750
O       18.07760000       9.85282000      16.33870000      -0.03333110       0.01220320      -0.03385280
H       16.99600000       9.96342000      14.69220000       0.02459260       0.01269020       0.03357000
H       18.49850000       8.09972000      16.27450000       0.01325180      -0.01684230       0.01048360
O        8.26468000      10.19858000       8.33915000      -0.02618350       0.00551151       0.02348300
H        7.39548000      10.74238000       6.86808000       0.01203810       0.00479543      -0.02344720
H        6.69248000      10.35718000       9.41865000       0.01979540      -0.00909113      -0.00242258
O        3.59986000       3.98988000      20.53860000      -0.00201596      -0.01585640       0.00915154
H        4.11026000       2.60304000      19.42410000      -0.01213820       0.01500790      -0.00146009
H        3.96546000       5.65572000      19.87200000       0.01299690      -0.00051148      -0.00012970
O        3.77588000      10.08288000      10.61692000       0.01376590      -0.08467460       0.00575660
H        3.90888000       7.90328000      10.62512000      -0.01076300       0.07204260       0.01466890
H        2.32528000      10.33228000       9.59282000      -0.01314670       0.00567025      -0.01623600
O       17.74790000      13.17010000       7.44122000      -0.04929050       0.09304380      -0.02690700
H       18.25830000      11.59050000       7.08982000       0.03365210      -0.07994090      -0.00655310
H       16.46450000      13.56220000       5.97672000       0.01749200      -0.00141465       0.04516330
O        2.86738000      22.20031000       9.25602000       0.00600907       0.01141490       0.00235798
H        3.74838000      20.65416000       9.56322000       0.00474485      -0.01669070      -0.00032137
H        1.44288000      21.88388000       8.14062000      -0.00447158       0.00373021      -0.00011363
O       17.05082000       5.46155000       9.65282000       0.01830310       0.01624390       0.02276280
H       15.62702000       4.92664000       8.77502000      -0.03660750      -0.01060710      -0.02156750
H       18.00912000       3.91146000       9.74082000       0.01288360       0.00254060       0.00970514
O       15.32506000      18.49286000      18.35951000       0.00795024      -0.06374450       0.00070443
H       16.47185000      16.85786000      18.88648000      -0.04305990       0.06106480      -0.01205470
H       13.67508000      17.82906000      17.60783000       0.03819570       0.00139204       0.01465540
O        4.00634000       5.12038000      12.15538000      -0.01674440      -0.02523140       0.04537820
H        5.05604000       6.01818000      13.53308000      -0.02188710      -0.02710230      -0.02940270
H        2.72864000       3.40388000      12.87088000       0.03746980       0.05585170      -0.02142390
O       10.13550000      23.56778100       9.97840000      -0.00757372       0.08175900      -0.16618400
H       10.13490000      22.78487000      11.44320000      -0.02524210      -0.04590620       0.10584900
H        8.69823000       0.28244600       9.02089000       0.02480220      -0.02028750       0.05600890
O       14.14426000      20.64693000      22.97062000      -0.07872310       0.06329330      -0.18011000
H       14.80886000      19.84102000      21.30422000      -0.01466770       0.01409220       0.03334420
H       14.97416000      20.04869000      24.19432000       0.09330720      -0.07240030       0.13772400
O       11.55330000      16.32449000      15.36852000      -0.06459730      -0.01851910       0.04850960
H        9.76759000      15.89033000      16.49743000       0.05119910       0.03466610      -0.02043550
H       11.30530000      14.76705000      14.47724000       0.01316150      -0.00602422      -0.02313520
O       22.17950000      18.61220000      11.59740000       0.01085160      -0.01957080      -0.04196840
H       20.92920000      19.82920000      12.11980000      -0.00082724       0.00113335      -0.01193930
H       22.31950000      18.28040000       9.66495000      -0.01309140       0.01328960       0.05439930
O       10.68470000      21.27960000      14.28434000      -0.00801412       0.00843797       0.02358620
H        9.50670000      21.73250000      15.65268000       0.00827416       0.00472880      -0.01021560
H       10.99920000      19.53450000      14.72728000       0.00480375      -0.01036600      -0.01254550
O       23.00620000      22.26362000       6.25652000       0.02317210      -0.05568570      -0.04911930
H       21.27510000      22.44772000       6.88572000       0.00678311      -0.01321000      -0.00678230
H       23.36840000      20.58442000       5.05642000      -0.02814690       0.06236460       0.04804090
O       16.72550000       8.19793000       3.12708000       0.18591300       0.14626600       0.07886190
H       16.11162000       9.36167000       2.02140000      -0.00759549       0.07246160      -0.04409290
H       15.71866000       7.09768000       2.78649000      -0.17586400      -0.21488500      -0.03328320
O       14.80640000       0.82498000      13.18570000      -0.00196724      -0.00961449       0.00596806
H       14.59720000       2.68528000      13.21320000      -0.01606330      -0.04056330       0.00562134
H       13.38330000      23.91746000      13.66310000       0.01587600       0.04524240      -0.00645165
O        0.52544000      16.34370000      15.59322000      -0.08049020      -0.04742020      -0.00455063
H       23.46671000      14.80040000      16.17152000       0.05006680       0.04698700       0.00313370
H       23.75221100      16.85950000      14.11012000       0.01953260       0.00748661       0.00617740
O       17.70972000      17.68832000       1.73197000      -0.04258300      -0.01892720       0.03207070
H       19.29462000      18.41442000       1.95230000       0.03027590       0.01956310       0.01068990
H       16.96112000      17.20372000       3.41302000       0.01382780       0.00515661      -0.03545000
O       21.92480000      13.23050000      18.43476000      -0.01852270      -0.04786160      -0.01816640
H       23.16580000      11.89450000      19.10656000      -0.03267420       0.02556020      -0.00706900
H       20.36240000      12.24700000      17.70756000       0.04778120       0.01955590       0.02044640
O        8.20568000      19.23562000       2.77558000      -0.05933410      -0.04064600       0.04030970
H        6.39798000      18.32022000       3.04996000       0.06277660       0.02297380      -0.00460593
H        8.99618000      19.05462000       4.47135000      -0.00855089       0.00445553      -0.02313160
O       10.69980000      19.19866000       7.77262000       0.04347730      -0.03359710       0.01942880
H       12.25640000      18.35006000       8.72202000      -0.05530210       0.04115620      -0.02987970
H       10.33690000      20.97486000       8.32162000       0.01980340      -0.01564970       0.00704480
O        2.56657000      11.37172000       2.16708000      -0.04932130      -0.01535650       0.03861620
H        1.19478000      10.86062000       3.60800000       0.05512320       0.01946440      -0.03185240
H        1.49772000      11.50392000       0.69575800       0.00679630      -0.00553333      -0.00890798
O       15.67291000      10.20338000      11.95740000      -0.01899510      -0.05370830       0.03311220
H       16.28213000       8.44178000      11.54300000      -0.00401120       0.03951440      -0.01596270
H       16.24964000      11.60198000      11.04460000       0.01959670       0.00819455      -0.02871040
O       19.46606000       4.49993000      16.12210000      -0.13894200       0.03516540      -0.11294600
H       20.78570000       4.12511000      17.01610000       0.11808000      -0.03313580       0.06146720
H       19.38845000       4.09557000      14.24060000       0.02081800      -0.00297456       0.04897210
O        0.28902000      10.02478000      21.55084000       0.07601090       0.07349120      -0.02093400
H       23.70230000       8.58058000      21.38007000      -0.04890990      -0.08212540      -0.00639638
H        1.86072000       9.71668000      20.49402000      -0.01743100       0.00563828       0.02629350
O       22.77250000       5.03602000      20.24912000       0.03018530      -0.06977840       0.05901720
H       21.78640000       4.08373000      21.63022000       0.00972578       0.03518060      -0.03608100
H        0.23912000       4.07197000      20.66852000      -0.04035290       0.04013660      -0.02593840
O       15.60950000       1.82612000      23.42612000       0.04292790      -0.02819970       0.01571590
H       17.43480000       1.97002000       0.01694000      -0.04585460      -0.00075768      -0.03117880
H       15.35670000      24.25570000      23.05202000       0.00202231       0.02720120       0.00868038
O        8.99688000      11.98180000      21.85100000       0.03817530      -0.04377860       0.02445010
H       10.87778000      11.69120000      21.25680000      -0.06359050       0.00327031       0.02479560
H        8.68528000      11.00670000      23.76180000       0.01840790       0.03195660      -0.05067210
