192
Lattice="24.4342 0.0 0.0 0.0 24.4342 0.0 0.0 0.0 24.4342" Properties=species:S:1:pos:R:3:force:R:3 TotEnergy=-1103.43487 cutoff=-1.0 nneightol=1.2 pbc="T T T"
O       20.73940000       2.01834000      16.49190000      -0.05253480      -0.04916800      -0.05511580
H       20.43260000       2.59972000      18.06650000       0.01036990       0.03813830       0.07635510
H       18.99530000       0.91041300      16.49710000       0.05091270       0.01607690      -0.02978510
O       22.89980000      19.30990000      10.08370000       0.00375016      -0.01399240      -0.02445050
H       24.17490000      17.83460000      10.20100000      -0.02913040       0.03693230      -0.01426110
H       22.18850000      19.84890000       8.36664000       0.02909260      -0.01996280       0.03429920
O       13.43220000      23.89564600      18.90980000      -0.07857080      -0.00602185       0.00257540
H       11.75760000      23.22775000      18.02490000       0.07208580       0.01694570       0.02430490
H       14.98390000      23.78710100      18.02980000       0.00724524      -0.01220330      -0.03177460
O       20.60063000      15.64903000       0.85517900      -0.01981360      -0.03117390       0.08216320
H       19.87295000      17.17253000       0.43577500      -0.01311800       0.05463310      -0.03426890
H       19.90394000      15.85010000       2.77012000       0.03748930      -0.02920090      -0.05068580
O        6.46561000       7.90540000      20.92130000       0.01008490      -0.07904990       0.00597179
H        6.81506000       9.42520000      20.03690000       0.02126300       0.01070300      -0.01761210
H        7.63985000       6.35150000      20.49120000      -0.03328190       0.06277540       0.01194060
O       23.14960000      13.03410000       9.44639000       0.01736000       0.09137890       0.17603300
H       23.56731800      12.15310000       8.17528000       0.04761550      -0.09632830      -0.14021800
H        0.49815400      13.33170000      10.48310000      -0.06201900       0.00541056      -0.03451230
O       13.15230000      23.31990000      11.76960000       0.03929180       0.01627870      -0.05572100
H       13.80390000      22.83750000       9.98630000       0.00033385       0.03778270       0.03050800
H       12.41660000      21.75420000      11.95670000      -0.03946550      -0.04434810       0.03288170
O       24.43340200      23.88180000      13.03620000      -0.03261430       0.07935760       0.04369470
H       24.39574300      22.44600000      12.12820000      -0.00295323      -0.07002080      -0.04807440
H       22.65739000       0.09530000      12.95880000       0.03599620      -0.01572580       0.00663793
O        7.67760000      12.13230000      18.44590000       0.06095340       0.00558960      -0.05841970
H        9.40090000      12.60780000      17.47710000      -0.05249820      -0.02079840       0.03259710
H        7.65110000      13.57080000      19.48410000      -0.01559360       0.01872270       0.02102810
O       10.04060000      21.58950000       2.26290000      -0.01838330      -0.02666270       0.02268780
H       11.46960000      21.56510000       1.23170000       0.03630050       0.00005455      -0.02150170
H        9.48913000      23.29720000       2.26180000      -0.01549530       0.02810140       0.00032540
O       11.77210000       4.14375000       5.44643000       0.09454390       0.02907800       0.00747263
H       10.44200000       3.59798000       4.44350000      -0.02423200      -0.01135860      -0.03103590
H       13.41640000       4.61544000       4.27948000      -0.07365030      -0.02387740       0.02995760
O       13.21430000       9.72340000       2.05710000      -0.05378940       0.04304100      -0.00768604
H       13.86140000      10.91060000       0.75120000      -0.00820816      -0.01996120       0.02436290
H       11.29460000      10.48510000       2.49610000       0.06462260      -0.02510340      -0.01536850
O       15.73110000      19.24690000       4.17370000      -0.02704010       0.01723770      -0.01084190
H       16.91430000      18.18510000       4.95830000       0.01486930      -0.01908760       0.01544910
H       14.15990000      18.29550000       3.99170000       0.01022610      -0.00147522       0.00122179
O        2.12070000      15.92140000      11.81870000       0.03073960       0.01950240       0.08879900
H        4.02850000      16.11750000      11.74750000      -0.03302030      -0.00685936      -0.01111800
H        1.80270000      16.31140000      13.93850000      -0.00201960      -0.01355060      -0.08468810
O       21.49825000       3.65198000      21.91407000      -0.00175853       0.10365100      -0.10074700
H       23.02492000       4.82041000      21.10763000      -0.04601020      -0.04415360       0.03576680
H       22.12338000       2.65739000      23.10422000       0.04586150      -0.05817160       0.06535620
O       20.80960000      21.94920000       5.75230000       0.12053600      -0.05554590      -0.02856000
H       19.26410000      22.34980000       6.06250000      -0.13539600       0.03978970       0.03200070
H       21.63350000      23.37150000       5.02100000       0.01485520       0.01521180       0.00167675
O       17.84850000      11.44890000      23.36660000      -0.03841970       0.01571310      -0.05576520
H       16.83040000      11.80950000      21.70390000       0.04166390      -0.01116920       0.05409030
H       18.81920000      12.92150000      23.88580000      -0.00000020       0.00295816       0.00091925
O        8.93660000      11.91100000       3.68890000       0.00005697       0.00539833       0.01009130
H        8.77340000      11.03790000       5.26990000       0.01063930       0.00310275       0.01613050
H        7.29420000      11.53180000       3.04020000      -0.00984988      -0.01076490      -0.01875410
O       17.26170000      23.32010000      15.20160000      -0.02717150      -0.03076670      -0.05420440
H       15.61540000      23.43730000      13.96490000       0.05698270      -0.00633505       0.03407020
H       18.53140000      21.81800000      14.45030000      -0.03840840       0.03590680       0.02650050
O        7.56080000       1.47540000       2.57240000       0.00291737       0.01739140      -0.03294640
H        6.28050000       0.93340000       3.76475000      -0.00541150       0.01255010      -0.00067684
H        6.89330000       2.45260000       1.07613000       0.00337530      -0.02401130       0.04076450
O        7.49070000      16.10100000      10.41920000      -0.01819730       0.02639630       0.00414222
H        8.22260000      14.51370000      10.43410000       0.00593179      -0.05341010      -0.01731110
H        8.62530000      16.84830000      11.61220000       0.00166543       0.02984170       0.00726949
O       14.32290000       7.33822000      13.70770000      -0.04723480       0.01260950       0.01927810
H       13.25340000       5.93126000      13.28160000      -0.03191930       0.00970612      -0.01222270
H       15.72785000       6.32813000      13.61670000       0.07532830      -0.01274240      -0.00281830
O        5.51816000       2.12691000      21.36513000       0.00604162      -0.06451920      -0.02689650
H        5.96142000       0.29102000      21.67918000      -0.00372965       0.03594590       0.01751360
H        5.00580000       1.64835000      19.64329000      -0.00433015       0.02562670       0.00606965
O       17.87030000       6.66726000      24.43160000       0.00522157       0.04251510      -0.01272550
H       17.88660000       8.66374000      23.96280000       0.00632844      -0.05708480       0.00949295
H       19.08060000       5.69316000      23.39390000      -0.00364842       0.01289020       0.00415876
O        1.02776000       9.67140000       5.56870000      -0.07848570      -0.02070070       0.06774700
H       23.68115900       8.93780000       5.22630000       0.03535780       0.01274240       0.00989235
H        1.71855000       9.76280000       4.02740000       0.04007160       0.00531702      -0.07675090
O        8.91327000      11.10650000       9.38473000      -0.16665400       0.00237927      -0.03848020
H        7.32679000       9.95810000       9.92237000       0.05975410       0.03350000      -0.01437010
H       10.37740000      10.68470000      10.00730000       0.10376400      -0.04389630       0.05131280
O        8.62400000      20.52180000      18.34230000      -0.10976700      -0.00899011      -0.04140990
H        6.48220000      20.11610000      17.90740000       0.09512810       0.02753600       0.02403920
H        8.93510000      19.34170000      19.63580000       0.00988164      -0.01495050       0.01949690
O        5.64080000       8.79700000       1.59120000      -0.00334980      -0.00840947      -0.00564789
H        6.13980000       8.61970000      24.24810000      -0.00340117       0.00195893       0.00533808
H        4.93080000       7.12220000       1.90680000      -0.00286808       0.00861693      -0.00159345
O       14.76040000       9.61650000      19.46270000      -0.03482190      -0.05085670       0.01940620
H       14.27410000       8.57060000      17.97480000       0.01232260       0.01787650       0.01457500
H       14.08040000       8.40210000      20.89620000       0.01751540       0.03568600      -0.04209050
O       24.24865000      23.20630000      22.63460000       0.01084890      -0.02754150       0.01391470
H       22.69684000      22.36610000      23.22540000       0.00834913       0.00717626      -0.00373027
H        1.16945000      22.19460000      23.43110000      -0.01490940       0.01555190      -0.00471075
O        5.11037000      15.54150000      22.01159000      -0.00214214      -0.01044330       0.06654540
H        5.34520000      14.82350000      23.79577900       0.00116829       0.01672870      -0.04986930
H        3.25694000      15.71840000      22.09143000       0.00838673      -0.00780121      -0.01708130
O        2.80792000       3.67683000      15.49450000      -0.07069300       0.01007710       0.01926390
H        1.03082000       3.02665000      14.86320000       0.06480450       0.01791310       0.02176420
H        2.30540000       4.78824000      17.00840000       0.00748729      -0.02858670      -0.03973160
O       11.88730000       5.09570000      20.95870000       0.00948480      -0.01861300       0.02763930
H       12.34540000       3.87750000      19.65420000      -0.00145592       0.00276778       0.01694330
H       12.33360000       4.28210000      22.65910000      -0.00767243       0.01285050      -0.04204180
O        4.83620000       0.15380000       7.10010000      -0.00075375      -0.02125640       0.00030268
H        5.05876000       1.21890000       8.62800000       0.00419902      -0.02135170      -0.01199960
H        5.35225000      22.71100000       7.24790000      -0.00524545       0.04312950       0.00456611
O       16.39050000      11.14770000       6.01477000      -0.06711200       0.05247010       0.03150390
H       15.14470000      10.58320000       4.81296000      -0.00948863      -0.00062445      -0.01102040
H       17.77450000      10.23990000       5.67899000       0.07675560      -0.05637580      -0.01705730
O       20.11030000      10.18370000      12.80610000       0.05990410       0.02936940      -0.03412100
H       18.59270000      11.20380000      12.43710000       0.01447450      -0.01015480      -0.00389956
H       21.70470000      10.92570000      11.63000000      -0.07020530      -0.01556320       0.03764870
O       11.26950000       4.07540000      10.87450000      -0.00236103      -0.00206630       0.02882370
H       11.38030000       4.49080000       9.08218000       0.00986608      -0.02215580       0.00189829
H       11.83350000       2.39600000      11.50030000      -0.00727257       0.01639500      -0.03312640
O        0.68570000       6.63193000      19.76470000       0.07156100      -0.02812030       0.01382170
H       24.39750000       8.02781000      19.00070000      -0.02681190       0.04529080      -0.02257590
H        2.55720000       7.09220000      19.86800000      -0.03928070      -0.01092930       0.01197390
O        3.77040000       8.52680000      10.12800000      -0.03907800       0.17957900      -0.07138360
H        4.02500000       6.93360000      10.34370000       0.02125260      -0.14647600       0.00501986
H        2.98770000       9.03060000       8.30270000       0.02132530      -0.02952160       0.06032670
O       19.45580000      15.40700000       6.26110000      -0.07813570       0.00828578      -0.05270570
H       20.66870000      15.06960000       7.37920000       0.07757520      -0.00703131       0.06012520
H       18.27760000      14.03940000       6.65340000      -0.00533061       0.00669945      -0.01496900
O        2.51970000      22.02908000      18.10350000       0.02308610      -0.02025890      -0.08063160
H        1.77630000      22.31538000      19.65790000      -0.03681180       0.02162330       0.03301160
H        1.66150000      22.72292000      16.54800000       0.00782995       0.00196476       0.03898600
O       19.80870000       3.69146000       7.98480000      -0.06821520      -0.06340030       0.06034010
H       19.43260000       3.73425000      10.13020000       0.01440980       0.01848300      -0.06586370
H       18.33660000       2.37751000       7.51310000       0.05626330       0.04947000       0.00952014
O       15.16265000      16.37600000      14.15620000      -0.02411900       0.00081038       0.01579340
H       16.72622000      17.34330000      14.26040000      -0.00100154      -0.01434750      -0.01706700
H       14.84050000      15.05640000      12.91430000       0.02984460       0.00673684      -0.00342133
O        5.94230000       3.77640000      11.19950000      -0.04503010       0.00581855       0.02737820
H        7.67780000       4.15380000      11.31570000       0.02765230       0.00201947       0.00158109
H        5.14360000       4.13980000      12.90080000       0.01208060      -0.01598950      -0.02868720
O       15.24310000      23.74529100       7.02359000      -0.05342400       0.02051260      -0.04657800
H       13.89870000       0.68258900       6.35432000       0.04490300      -0.04488400       0.02295140
H       15.02450000      22.24820000       5.82815000       0.00641561       0.02425480       0.01959800
O       12.39380000      17.59220000      22.01000000       0.03734770       0.07958690      -0.08559870
H       12.36410000      16.32903000      20.78810000       0.00059802      -0.03347180      -0.02774680
H       11.85910000      17.08228000      23.47330000      -0.04062510      -0.05119550       0.11459800
O        2.90387000      11.08210000      14.76594000      -0.00062473       0.05806700       0.13407100
H        4.36225000      11.12350000      16.00088000      -0.03048550       0.00402516      -0.02302850
H        3.48367000      10.33880000      13.40990000       0.03427060      -0.05846560      -0.10931700
O       19.85960000      19.36070000      14.01440000      -0.01423810      -0.01162170       0.02331370
H       20.39830000      18.96930000      12.33070000       0.01613900       0.00240289      -0.01590900
H       21.16620000      18.62280000      15.11980000      -0.00207950       0.01016660      -0.00790243
O       10.44550000      18.89320000      13.54460000      -0.06948030       0.03878220       0.00772826
H       11.73230000      17.77880000      13.80900000       0.05181640      -0.03530070       0.02060640
H        9.41536000      19.08480000      15.13546000       0.02974600      -0.00021490      -0.02337380
O       24.21750000       1.63180000       5.07460000       0.05937750       0.00268045       0.03924730
H       23.58370000       2.83260000       6.40460000       0.01086530      -0.02695840      -0.02487320
H        1.64010000       1.00860000       5.73600000      -0.06377520       0.01869090      -0.01352970
O       20.23873000       7.66034000       5.05100000       0.02539440       0.00990208       0.04102350
H       20.32300000       6.26897000       6.39112000      -0.01639630       0.01290060      -0.03358560
H       19.66020000       7.12799000       3.44161000      -0.00708099      -0.01680750      -0.01421120
O       14.53030000      22.01130000      23.56120000       0.01187060       0.04570630      -0.02946750
H       14.16060000      20.38380000      23.03570000      -0.00975788      -0.05473270      -0.00251572
H       14.38430000      22.69240000      21.76230000      -0.00568522       0.00915091       0.03177240
O       19.65938000      20.95170000       0.42150000      -0.02152180       0.00185827       0.04013500
H       17.96150000      21.24770000      24.08300000       0.01801510       0.00066811       0.01995070
H       19.42514000      21.00590000       2.38700000       0.00739952       0.00058383      -0.06414060
O       11.21010000      16.40160000       2.94348000      -0.00431534       0.07111160      -0.02326190
H       10.07970000      17.91920000       2.57583000       0.02484660      -0.04329790       0.01365010
H       10.18440000      15.01190000       3.35745000      -0.01797660      -0.02372980       0.00996585
O       24.22440000      17.69360000      16.25790000       0.04320900       0.06991600       0.01236820
H       24.12760000      16.73910000      17.73270000      -0.00754150      -0.03779120       0.03260440
H        0.80320000      19.24530000      17.16030000      -0.02729390      -0.03781020      -0.03730360
O        5.11600000      21.09180000      24.04867400      -0.01651260      -0.00485842      -0.03994860
H        5.91890000      19.56780000      23.47176000      -0.00457088      -0.00084126      -0.00151383
H        5.74150000      21.34740000       1.22386000       0.01370440       0.00707018       0.03658940
O        6.96557000      19.83530000       6.13380000       0.04504470       0.06653340      -0.08319740
H        7.03977000      18.36160000       7.07850000       0.01731160      -0.03488170       0.01750470
H        8.59003000      20.27890000       4.64170000      -0.06046850      -0.02384410       0.06851110
O        2.80234000       4.41320000       0.82567300      -0.03330560       0.02580360       0.13764800
H        3.10286000       3.77490000      23.73072400       0.00732017      -0.05154260      -0.07455520
H        1.92377000       3.33750000       2.21827000       0.02050230       0.02283490      -0.05626340
O       15.24455000      11.72140000      11.17750000      -0.02510410      -0.04662590       0.01146450
H       14.42510000      10.18130000      12.25300000       0.03586640       0.04087560      -0.04259740
H       15.64574000      11.09950000       9.40694000      -0.01197100       0.00975045       0.02880780
O       18.97729000       5.17167000      12.70470000       0.01893530      -0.04202540       0.02421410
H       20.06947000       6.62815000      12.67610000      -0.00598482       0.01687620      -0.00326772
H       19.77575000       4.05317000      14.07320000      -0.01606430       0.01367490      -0.01403510
O        0.19680000      14.44750000      21.05406000      -0.06692570       0.02709920       0.05342760
H       24.03850000      13.01210000      19.99362000      -0.00276796       0.01152430       0.00908989
H       23.11280000      14.94967000      22.42135000       0.06314740      -0.02771350      -0.05718680
O       23.26280000      11.11870000      17.60840000       0.03777080      -0.00080657      -0.07054160
H       21.83020000      10.91340000      16.44560000       0.00429220       0.00155766       0.01247400
H        0.38040000      11.31670000      16.09570000      -0.04248440      -0.01153550       0.05360920
O       14.54360000       3.29340000       1.18070000      -0.02803670       0.03803750      -0.00664145
H       15.50830000       4.80760000       0.49520000       0.01286590      -0.02537110       0.01300500
H       15.40900000       1.76570000       1.42000000       0.01968870      -0.01049340      -0.00750590
O       12.37730000      14.22460000      18.17510000       0.04604580      -0.07935890       0.01776220
H       13.65660000      14.70720000      16.96620000      -0.00172044       0.01897560      -0.01139750
H       13.40370000      12.43710000      18.74550000      -0.04338650       0.05108210      -0.00862817
