192
TotEnergy=-1103.38635000 cutoff=-1.00000000 nneightol=1.20000000 pbc="T T T" Lattice="24.39863000       0.00000000       0.00000000      -0.00000100      24.39863000       0.00000000      -0.00000100      -0.00000100      24.39863000" Properties=species:S:1:pos:R:3:force:R:3:Z:I:1
O              22.83470000     -3.84691000    -29.11290000      0.02513900     -0.00085197      0.04792800       8
H              21.95260000     -3.42161000    -30.55500000     -0.03408690      0.01491540     -0.03567620       1
H              24.01760000     -5.12963000    -29.62680000      0.00717431     -0.01489370      0.00691962       1
O              45.74170000     45.22260000      0.55781000      0.01777050      0.01051980     -0.01060490       8
H              46.38350000     46.75770000      1.52149000     -0.00505053     -0.03548020     -0.03036120       1
H              46.50880000     44.89340000     -1.20027000     -0.01453590      0.02217770      0.03823230       1
O              11.03540000      1.72672000     14.38150000     -0.03251270     -0.05707670     -0.05182460       8
H              11.66840000      2.45622000     15.83630000      0.02041850     -0.00349188      0.04370920       1
H              10.31610000     -0.15711000     14.54130000      0.01784420      0.06154920      0.01595050       1
O              -5.90399000    -11.86550000     -0.96020200      0.00777963     -0.02064660      0.00773956       8
H              -5.02331000    -12.63980000     -2.42993000     -0.01178690      0.02753320      0.00670100       1
H              -6.37593000    -10.07650000     -0.97481700      0.01182000     -0.00825894     -0.01516950       1
O               6.44049000     30.14300000     18.81080000     -0.00184568     -0.00196903     -0.01258450       8
H               6.68104000     31.82990000     19.58720000      0.00518179     -0.01472820     -0.02134910       1
H               7.09277000     29.96910000     17.01570000     -0.00442124      0.02325730      0.02919040       1
O              -5.39361000     11.17300000     10.27780000      0.05950860      0.04351210     -0.07373380       8
H              -6.41312000      9.82771000     10.58070000     -0.04291710     -0.05555930      0.01986380       1
H              -4.64124000     10.76840000      8.52285000     -0.01544850      0.01120540      0.05126110       1
O              45.07720000     25.52850000     12.44400000      0.06117960     -0.00154269      0.00245264       8
H              46.91040000     25.82960000     11.82360000     -0.03947210     -0.00598445      0.02035530       1
H              43.95170000     26.00200000     11.15870000     -0.01980350      0.00060342     -0.02055120       1
O              -1.00579000    -28.67630000      8.39121000     -0.00741858     -0.00453307     -0.00859575       8
H              -1.07127000    -29.78680000      6.88945000     -0.00162108      0.01292460      0.01171960       1
H              -2.14765000    -27.26530000      8.04785000      0.01261180     -0.01246070     -0.00472617       1
O              31.38900000    -33.99810000     20.32800000      0.07437880      0.03355840      0.01307040       8
H              32.70440000    -32.38820000     20.22820000     -0.05143280     -0.07459510      0.01344800       1
H              32.36690000    -35.63330000     21.15890000     -0.02259260      0.04598620     -0.03743130       1
O               9.83574000    -29.48700000    -26.51650000      0.04605980      0.06101590     -0.01315810       8
H              11.17090000    -28.09790000    -27.00340000     -0.03786240     -0.04443120      0.00601211       1
H              10.20640000    -29.46520000    -24.74070000     -0.01088200     -0.01768190      0.01272630       1
O             -10.05540000      5.26443000      7.34616000     -0.04246320      0.10634200      0.01214440       8
H             -11.41930000      6.61103000      6.66443000      0.05280040     -0.04926320      0.03180830       1
H             -10.33540000      4.04311000      6.14253000     -0.01339680     -0.05079470     -0.03656000       1
O             -11.83930000     26.77380000     52.44110000      0.00099403     -0.00486225     -0.05568920       8
H             -13.70190000     26.80810000     51.75010000      0.04447890      0.00755056      0.02321600       1
H             -10.61860000     26.99460000     50.94160000     -0.04059580     -0.00966872      0.03207710       1
O              14.37000000    -29.05440000    -13.87720000     -0.09255850      0.13032000      0.14618600       8
H              15.15580000    -30.15090000    -14.69880000      0.09905960     -0.14515700     -0.10691300       1
H              14.39580000    -29.69920000    -12.07410000     -0.00494106      0.02228960     -0.04312370       1
O              27.64030000     15.02930000     34.98550000     -0.06519640      0.00735995      0.01337190       8
H              27.64650000     13.24550000     34.23040000     -0.02934680      0.03489800      0.01983540       1
H              25.62060000     15.72450000     35.49260000      0.09691670     -0.04443920     -0.02638960       1
O               0.19954400      0.81095100      2.06281000      0.02075230     -0.04496520     -0.07383310       8
H               1.71506000      1.09957000      3.01796000     -0.00109390      0.00320968      0.00934735       1
H               0.90968800     -0.21003600      0.39234100     -0.02177920      0.04720020      0.05580320       1
O             -28.45900000     24.08850000     30.01760000     -0.01527890     -0.00893452      0.03861220       8
H             -28.83950000     25.13230000     28.61500000     -0.00520864      0.00952628     -0.00150121       1
H             -29.65950000     24.47560000     31.41570000      0.01129080     -0.00057418     -0.03049230       1
O             -33.47880000     10.01300000     26.36510000      0.00448928      0.00510010      0.15483800       8
H             -34.57120000      9.10378000     25.54000000     -0.08812240     -0.07080580     -0.05718470       1
H             -32.59930000     10.77370000     25.20370000      0.08202740      0.06456960     -0.09687970       1
O             -19.81240000     65.41500000    -19.11160000      0.00388863     -0.03496380      0.00311037       8
H             -19.59100000     64.35120000    -17.52250000     -0.00952814      0.02586410     -0.04259620       1
H             -19.81470000     64.25890000    -20.61200000      0.00577744      0.00915587      0.03149200       1
O              68.77020000     21.30710000     40.16900000     -0.07153940      0.04338530     -0.01628460       8
H              69.14050000     22.72080000     39.00830000      0.00907134     -0.00651594      0.00296886       1
H              66.85680000     21.71810000     40.30620000      0.04878150     -0.02390980      0.00500914       1
O              56.53820000    -21.00190000      2.69184000     -0.00145696      0.00428456     -0.01218460       8
H              55.09550000    -21.35610000      3.82192000      0.01078960     -0.01333430     -0.02676000       1
H              56.42270000    -21.41870000      0.85109800     -0.01100670      0.00337854      0.02457400       1
O              32.37570000     18.46450000    -13.44440000     -0.27832900      0.12984100     -0.04920760       8
H              33.69680000     17.81290000    -13.15800000      0.28401300     -0.13401800      0.05281550       1
H              31.16780000     17.10390000    -13.35780000     -0.00704467      0.00613615     -0.00250340       1
O             -15.77010000      6.22340000     62.71010000      0.02397060      0.04985290      0.01994310       8
H             -14.70100000      7.91871000     63.13400000     -0.02852160     -0.06072290     -0.01435090       1
H             -14.76020000      4.64317000     62.72640000     -0.00300423      0.01451270     -0.00577628       1
O               9.02965000      2.57032000     -2.35851000      0.04256490     -0.08234210      0.10347300       8
H              10.82050000      2.21143000     -2.32828000     -0.01526060      0.01050970     -0.00820936       1
H               8.47089000      3.52819000     -3.59737000     -0.03020260      0.06923160     -0.08990680       1
O              44.67200000      4.21454000     25.55960000      0.02094100     -0.04027600     -0.12515700       8
H              43.99970000      4.89321000     26.91290000     -0.03518250      0.04980370      0.10640200       1
H              46.02030000      3.08057000     25.80120000      0.02249630     -0.00960147      0.01539380       1
O              -3.25912000     61.14440000     28.34750000      0.03424300      0.05962410     -0.00402091       8
H              -4.07762000     61.23110000     26.71290000     -0.00833178      0.00115038     -0.00681005       1
H              -2.27448000     62.99880000     28.38920000     -0.02866510     -0.06091210     -0.00004502       1
O              11.84740000     38.75980000     11.23530000      0.00943147     -0.00241856     -0.01061750       8
H              10.69350000     37.88230000     10.13500000     -0.00617082     -0.00430813     -0.00055269       1
H              13.42380000     38.84380000     10.08950000     -0.01757930      0.00525971      0.02157930       1
O             -18.58080000     20.43810000     19.43320000      0.03562230      0.02067350      0.08214110       8
H             -19.78170000     19.06940000     19.49660000     -0.00732745     -0.01218690     -0.00715198       1
H             -17.57520000     20.35820000     21.28750000     -0.02570970     -0.00476363     -0.07209730       1
O              32.88350000     33.15010000     51.44340000     -0.01366910      0.01462670     -0.00671555       8
H              32.26340000     31.47170000     51.58190000      0.01110180     -0.02872610      0.00546923       1
H              31.33550000     33.85680000     50.74340000      0.00206321      0.02037290      0.00753165       1
O              13.40750000     32.48400000     20.03670000     -0.02308000     -0.08894990      0.13590800       8
H              13.76430000     33.02960000     18.55550000      0.03337250      0.05826230     -0.14077300       1
H              13.96520000     30.60620000     19.92380000     -0.01887290      0.03965030     -0.00091345       1
O               1.86912000    -24.94060000     21.40650000      0.02973580      0.01227900      0.01110700       8
H               0.53162100    -25.95440000     20.78490000     -0.02294990     -0.02092560     -0.01162960       1
H               3.39744000    -25.82960000     20.86790000     -0.00513588      0.00219995      0.00243176       1
O              -0.98399300     17.11480000      3.78846000     -0.01610110     -0.02233320      0.02575010       8
H               0.78344700     17.30390000      3.54913000      0.01046820      0.00645852     -0.00673068       1
H              -2.03975000     18.09990000      2.70538000      0.00673410      0.01576470     -0.01545400       1
O               1.37435000      1.57074000     12.33660000     -0.09212480      0.11347500     -0.02874480       8
H               2.08316000      0.30927100     11.59970000      0.06545740     -0.11835900     -0.09058290       1
H               1.94696000      1.35098000     13.87680000      0.02693110     -0.00055723      0.12189700       1
O             -34.23570000     51.97160000    -30.18850000     -0.03152260      0.00373365      0.00412087       8
H             -32.54370000     52.19800000    -30.80850000      0.00680725     -0.00557598      0.00595033       1
H             -34.41060000     51.31120000    -28.43560000      0.02989840      0.00974548     -0.02395810       1
O               3.91074000     50.78160000    -18.46440000     -0.01005760      0.00233306     -0.04354030       8
H               4.67154000     52.00130000    -17.50300000      0.02162760      0.06251920      0.02228210       1
H               3.74083000     49.71930000    -17.07980000     -0.01106580     -0.05732600      0.02253090       1
O             -34.32210000     39.52730000      3.53506000      0.01468110      0.07026450      0.03007670       8
H             -34.36160000     37.83720000      3.11899000     -0.02346660     -0.04756060     -0.01956320       1
H             -35.83300000     40.59040000      3.75644000     -0.00540942     -0.03229380     -0.01303590       1
O              20.39630000     37.49880000     15.01950000     -0.05715340     -0.07785000      0.00949973       8
H              21.39900000     38.81510000     14.80300000      0.06593540      0.09046090     -0.00610298       1
H              20.26610000     36.93670000     13.29670000     -0.00973368     -0.01192860     -0.00506285       1
O             -15.86820000    -13.33980000      8.08934000     -0.03637360     -0.00513361      0.00587044       8
H             -15.59240000    -14.06280000      6.33467000     -0.02768370      0.01186670      0.03600600       1
H             -17.68070000    -13.48060000      8.87625000      0.06153540     -0.00753133     -0.04580720       1
O             -47.14310000      3.19812000     17.85390000      0.01951630      0.04766730     -0.00065273       8
H             -47.09220000      1.67816000     18.94610000      0.01787360      0.02497950      0.00332937       1
H             -45.77220000      4.66142000     18.14720000     -0.02968440     -0.06457140      0.00305170       1
O             -22.79320000    -14.04510000     33.41500000      0.01547690     -0.07408000      0.01813130       8
H             -22.16490000    -15.81350000     34.23220000     -0.01562070      0.05725700     -0.02273010       1
H             -23.68520000    -14.72390000     31.92800000      0.01044040      0.01101540      0.00473136       1
O              15.61810000     15.10910000     32.80280000     -0.05863480      0.02698830     -0.05675360       8
H              16.92600000     14.01400000     33.07320000      0.04510770     -0.03907730      0.01092980       1
H              14.91120000     14.76890000     30.93180000      0.02964550      0.01632780      0.04106130       1
O             -20.42210000     -1.92818000     33.53710000     -0.03227420     -0.04958130      0.01000520       8
H             -18.86780000     -2.60001000     34.34220000     -0.02856460     -0.00196458     -0.01584500       1
H             -21.87480000     -3.34622000     33.28980000      0.05503720      0.04691120      0.01048470       1
O              40.09730000      7.09150000     36.90040000      0.00065007      0.03060210      0.02178110       8
H              39.57570000      6.25248000     35.43430000     -0.00544102     -0.01946140     -0.01988470       1
H              41.20270000      6.11115000     38.00390000     -0.00008206     -0.00320595     -0.00622456       1
O              -8.96662000    -33.52580000     -7.14668000      0.06230050      0.05684200      0.00277976       8
H              -7.10841000    -33.54520000     -7.72261000     -0.05658430     -0.02032250      0.00970162       1
H              -9.94563000    -34.87000000     -7.67423000     -0.00827508     -0.03966690     -0.01829720       1
O              52.90840000    -18.61590000    -13.51330000      0.01778510      0.00943878      0.02603610       8
H              54.33840000    -17.88880000    -12.45620000     -0.02296220     -0.02359650     -0.01919030       1
H              52.12830000    -19.97970000    -12.49760000      0.00797541      0.01889910     -0.01543500       1
O              16.02810000      0.54310200      9.63760000     -0.03946310      0.00753302      0.04435820       8
H              15.03290000      1.84523000     10.75540000      0.02741380     -0.04857010     -0.03909940       1
H              15.36660000     -1.19669000     10.13950000      0.01293190      0.03624170     -0.00448172       1
O             -33.98930000     -2.73023000     46.04500000      0.03097990     -0.07208070     -0.01186560       8
H             -34.19870000     -3.29814000     44.22060000      0.00464793      0.01483140      0.02343970       1
H             -32.89980000     -4.28859000     46.75060000     -0.03459100      0.04532770     -0.01870790       1
O               3.91335000    -11.03520000     -7.99473000      0.04767560      0.02661250     -0.00805496       8
H               5.54193000    -10.21840000     -7.38955000     -0.02979940     -0.02247630      0.02450910       1
H               4.29320000    -10.66940000     -9.71195000     -0.01909230     -0.00642592     -0.02723030       1
O              22.45200000     17.75720000     13.39600000     -0.00691385      0.01306580     -0.03912710       8
H              21.36630000     19.00930000     14.27270000      0.00941049     -0.01407760     -0.00856697       1
H              22.26620000     18.22180000     11.54650000      0.00528894     -0.00534163      0.03917930       1
O               8.63639000     21.63300000     -8.79012000      0.00548388     -0.00463428      0.01449380       8
H               7.73847000     21.32280000     -6.96772000      0.00298365     -0.01170980     -0.06328410       1
H               8.36388000     20.53930000    -10.30870000     -0.01189960      0.00773549      0.03642150       1
O              24.65840000     57.62760000     28.28580000     -0.05978390      0.02111060     -0.03626320       8
H              22.96340000     58.93050000     27.82340000      0.05536870     -0.03137280      0.02955400       1
H              24.18190000     56.08190000     27.35750000      0.01049870      0.01881430      0.01598230       1
O              -5.38267000      7.00670000      5.35600000     -0.00342020     -0.01665470      0.01366860       8
H              -5.89662000      8.52535000      4.60920000      0.00081037      0.02808750     -0.01953380       1
H              -7.00947000      6.54107000      6.05584000     -0.00024087     -0.01205100      0.00808497       1
O              13.75380000    -28.50260000     16.38930000      0.00440959     -0.04057870     -0.00477475       8
H              11.91530000    -28.32220000     16.48630000      0.00393304      0.00578961     -0.00738691       1
H              14.02560000    -30.39700000     16.11630000     -0.00113941      0.03362520      0.02037030       1
O               1.77805000     16.95080000     43.79540000      0.00581612     -0.03072050     -0.05542400       8
H               2.41175000     15.72740000     44.94050000      0.00319509     -0.01012640      0.02537290       1
H               1.87314000     15.62310000     42.31350000     -0.00177063      0.04199320      0.02897750       1
O              41.88100000     41.72320000     -0.30632900     -0.02167140      0.05676520      0.04655180       8
H              43.06340000     43.04600000      0.39442200     -0.00679863     -0.02238540     -0.01831150       1
H              40.51970000     41.88440000      1.04784000      0.02543740     -0.02082730     -0.02842870       1
O              21.33020000     10.70150000    -29.32810000      0.00599534     -0.07608410      0.04709380       8
H              21.58880000      8.64728000    -28.97520000     -0.00955720      0.05711790     -0.02399090       1
H              21.40440000     10.96750000    -31.09300000     -0.00637455      0.00763965     -0.02310690       1
O             -14.53110000     42.18790000      3.17335000     -0.00258320      0.01573850      0.00541978       8
H             -16.16110000     42.35670000      4.04061000      0.01482140     -0.00454731     -0.00479254       1
H             -13.45190000     43.63740000      3.72756000     -0.01657550     -0.01033580      0.00133445       1
O              13.22860000    -27.80340000     29.03930000      0.02157490     -0.00543152      0.10871200       8
H              13.49150000    -27.61580000     31.12710000     -0.01466400     -0.02047950     -0.08658490       1
H              13.31430000    -26.05510000     28.75780000     -0.00363377      0.03590300     -0.01993130       1
O               4.28758000     36.33160000      1.28487000      0.00498239     -0.03644870      0.13363500       8
H               2.81967000     35.68570000      2.39961000      0.02739310      0.01193450     -0.05137800       1
H               4.10783000     36.86130000     -0.30556100     -0.03466040      0.01830720     -0.08257550       1
O             -12.55240000    -13.82220000     14.93060000      0.02654710     -0.01467270     -0.02355730       8
H             -11.21920000    -14.84710000     14.01050000     -0.02178060      0.01836230      0.01638150       1
H             -12.70310000    -12.30220000     13.84850000      0.00113279     -0.01061080      0.00172626       1
O              -5.55119000      4.58473000     15.53530000      0.00977193     -0.02038520     -0.01070000       8
H              -4.34965000      5.36039000     16.62140000      0.00462620      0.00820593      0.01275710       1
H              -4.51812000      3.30343000     14.58990000     -0.01627630      0.01201320      0.00711978       1
O              26.09870000    -12.68650000     -3.90332000     -0.01465270     -0.04224280     -0.06413120       8
H              24.19830000    -13.26210000     -3.95128000      0.04721190      0.02278570     -0.00345320       1
H              26.75280000    -13.16590000     -5.80051000     -0.02375800      0.02353360      0.07975440       1
O              21.82750000      5.63996000     44.49510000      0.04358900      0.00143995      0.07428880       8
H              21.55260000      5.94704000     46.54850000      0.01375660     -0.02602130     -0.08047640       1
H              23.71630000      4.88724000     44.13540000     -0.05923640      0.01946080      0.00942528       1
O              15.34900000     26.29770000     47.59290000      0.03772580     -0.05312030      0.01655920       8
H              17.07070000     26.50660000     48.26000000     -0.01199380      0.02205810     -0.00556928       1
H              15.65670000     24.40760000     47.07270000     -0.02735730      0.03186700      0.00504734       1
O             -15.69470000     10.34150000     21.25480000      0.05516360     -0.04525340      0.03892070       8
H             -13.79580000      9.53604000     20.55070000     -0.06295670      0.02291160      0.03590650       1
H             -15.85880000      9.92599000     23.20020000      0.01716080      0.00720804     -0.06594070       1
