192
TotEnergy=-1102.61052000 cutoff=-1.00000000 nneightol=1.20000000 pbc="T T T" Lattice="22.97081000       0.00000000       0.00000000      -0.00000100      22.97081000       0.00000000      -0.00000100      -0.00000100      22.97081000" Properties=species:S:1:pos:R:3:force:R:3:Z:I:1
O              13.88960000      8.88255000      1.51349000      0.01146840      0.00983342     -0.01404650       8
H              12.56140000      9.93389000      0.74407900      0.01916650     -0.02588510      0.01433540       1
H              13.40890000      6.98896000      1.43076000     -0.00996789      0.03329910     -0.01220150       1
O              20.79110000      1.65696000     21.13370000      0.03315090     -0.03474980      0.01993220       8
H              20.89550000      0.11547100     22.29940000     -0.01227260      0.03566060     -0.01870380       1
H              19.18390000      2.46392000     20.85230000     -0.01405510     -0.00218935      0.01114860       1
O              10.05680000     20.70020000     21.92110000      0.06926310      0.04328130     -0.07364150       8
H               9.54899000     19.01930000     21.71700000      0.00068942     -0.02660850     -0.00274358       1
H              11.75590000     20.95630000     20.60390000     -0.07843510     -0.01481420      0.05655920       1
O               9.20208000      9.50576000      3.00649000     -0.01878690      0.06883800      0.08748320       8
H               8.43194000      8.40773000      4.30591000      0.00370746      0.00797037     -0.02036070       1
H               9.07100000     11.32470000      3.98087000      0.00705692     -0.06467690     -0.04344390       1
O              12.77390000      0.11486900     16.53210000      0.04265080     -0.03885930      0.01935730       8
H              11.98780000      1.53848000     15.71570000      0.01517810      0.00380647      0.00304444       1
H              14.70270000      0.11334700     16.37270000     -0.05441480      0.00809128     -0.00931247       1
O               2.21641000     17.33110000     22.04500000      0.01885080      0.02752400      0.01110310       8
H               2.09459000     16.84980000     20.31620000     -0.00765344     -0.02582870     -0.00993027       1
H               3.13054000     18.89730000     21.74460000     -0.00084148     -0.00291303      0.01297610       1
O               3.66927000     18.19250000     15.74750000      0.05305310      0.09175840      0.00371744       8
H               5.22881000     19.56280000     16.01940000     -0.07330620     -0.05239330     -0.00245010       1
H               2.72290000     18.63090000     17.28440000      0.01383200     -0.00737347     -0.02782010       1
O              19.59340000     16.06370000     16.02210000     -0.02922650     -0.00446824     -0.01761040       8
H              20.42770000     17.41590000     16.90580000      0.00130439      0.01219850      0.01095280       1
H              20.27300000     16.28250000     14.33380000      0.00601023     -0.00845462     -0.00256054       1
O              12.77460000     16.83380000     21.05510000      0.06020170     -0.05920650      0.04687490       8
H              13.42600000     15.96570000     23.09750000     -0.04652340      0.04681790     -0.09789700       1
H              14.39290000     16.57090000     20.15660000     -0.02119410      0.00080755      0.00688166       1
O              13.13570000     12.24580000      8.49779000     -0.03641490     -0.01438610      0.02668150       8
H              12.32000000     11.97910000     10.38860000      0.03009100      0.00714429     -0.05082870       1
H              13.64530000     10.57330000      7.78869000     -0.00623586      0.01726170      0.02139840       1
O              21.77600000     11.94350000     16.33250000      0.08860950     -0.04886260      0.02408870       8
H              23.73470000     11.99110000     16.89910000     -0.07677360     -0.00167021     -0.01876670       1
H              21.15320000     13.58200000     16.68410000     -0.00768897      0.02263710     -0.00531725       1
O               3.13217000     21.40460000      5.57360000      0.04221020     -0.00186616     -0.01135530       8
H               2.92814000     19.69010000      6.35233000      0.00513683      0.01148990      0.00039230       1
H               5.02006000     21.86410000      5.52461000     -0.06291840     -0.01643110      0.01466650       1
O              22.21620000      2.27634000     10.96670000     -0.01431490     -0.06017630     -0.03505980       8
H              22.51660000      0.78707900     11.97650000      0.00325362      0.00950670     -0.00185677       1
H              23.01420000      3.61923000     11.73190000      0.01152740      0.04306270      0.04180060       1
O              16.78360000      3.98818000     20.41070000     -0.03487030      0.01166890     -0.00660407       8
H              16.94070000      4.93248000     18.85490000      0.01057710      0.00441373     -0.00000352       1
H              15.04380000      4.37809000     20.89660000      0.00878094     -0.01023430      0.00615673       1
O              17.51860000      1.43783000      9.46853000     -0.05087330     -0.02803290     -0.02161230       8
H              17.87530000      0.78428700      7.79747000      0.00030348      0.00445127      0.00646109       1
H              19.00850000      2.20828000      9.91536000      0.05119760      0.02589500      0.01838280       1
O              10.33540000     14.05150000      5.15228000     -0.01617540      0.06241750     -0.03410190       8
H              11.43370000     13.18080000      6.88098000     -0.00253161      0.00181449      0.00026598       1
H              11.53960000     15.35920000      4.10865000     -0.02112100     -0.03089190      0.02154260       1
O              18.12660000     16.99600000      1.38459000     -0.02051180      0.01536760      0.01943170       8
H              19.62220000     16.74810000      2.42792000      0.00627723     -0.00434917      0.00361349       1
H              18.25830000     15.76660000      0.05699700     -0.00617437     -0.00236198     -0.01231310       1
O               6.13209000     13.36670000     11.54580000      0.03228370      0.00843425      0.03392780       8
H               6.75828000     17.36300000     13.12870000     -0.02592930     -0.02964010     -0.02277460       1
H               6.23812000     13.80780000      9.60529000     -0.02533480     -0.01958070      0.02735960       1
O              22.50860000     16.11390000      3.19285000     -0.11573600     -0.07186080      0.08280400       8
H              23.45490000     16.29810000      1.90120000      0.10750700      0.05016270     -0.14094700       1
H              22.16020000     14.28810000      2.63064000      0.00856120      0.00817976      0.03526170       1
O               3.85865000      4.52907000      9.29140000     -0.00717544     -0.10257400      0.04589070       8
H               4.94906000      3.04132000     10.02460000     -0.02093710      0.05625090     -0.03556710       1
H               2.27148000      3.51111000      9.39657000      0.01033110      0.02516190     -0.01353160       1
O               5.13168000     21.33320000     19.26760000      0.09770900      0.02038190      0.04751460       8
H               4.42079000     23.00370000     18.96000000      0.00448666     -0.01346060      0.00197591       1
H               7.21421000     22.06620000     20.04050000     -0.08842600     -0.03955580     -0.02947330       1
O              17.78860000     22.02830000     14.64190000      0.09061310      0.04939440      0.02967810       8
H              18.55510000     22.21240000     12.94300000     -0.02234730     -0.00384936      0.01982010       1
H              19.34230000     22.80390000     15.75600000     -0.05688280     -0.03258230     -0.03998320       1
O              22.55160000      5.96780000     13.93450000     -0.00060156      0.01422610      0.00798129       8
H              22.23240000      7.55005000     13.08160000     -0.00780592     -0.00020668     -0.00867012       1
H              23.15880000      6.57726000     15.51770000      0.00547470     -0.00257178      0.00651265       1
O              21.43070000     21.05950000      1.51490000     -0.00192587     -0.00594621      0.00808229       8
H              22.86820000     21.08420000      2.63607000      0.00277672      0.00448744      0.00193724       1
H              20.21970000     19.94590000      2.31875000      0.00951630      0.00636791     -0.01141190       1
O               0.36490400     -0.19702400     17.53480000      0.06687920      0.10267000     -0.02135140       8
H              -0.64239800      0.88774900     18.78060000      0.00894479     -0.01791170     -0.01326240       1
H               2.19283000      1.64564000     17.10770000     -0.06239060     -0.06870660      0.02368800       1
O              21.37440000     18.99090000     18.99720000     -0.02961730      0.00349533      0.03986940       8
H              20.07080000     19.59390000     20.22160000      0.03632340     -0.00918067     -0.02155570       1
H              22.84580000     20.11160000     18.99460000     -0.01685460      0.01023920      0.00017950       1
O               7.03375000     12.41150000     20.38170000      0.10377000     -0.02112780     -0.01321960       8
H               6.60638000     10.66060000     20.51640000     -0.02393070     -0.00520152      0.00269180       1
H               8.98424000     12.08510000     19.86200000     -0.07589580      0.02054680      0.02039670       1
O              13.01500000      2.64895000     11.88810000      0.05578810      0.04616790      0.04772880       8
H              14.39650000      2.12462000     10.78170000     -0.00147909      0.00138546      0.00124174       1
H              14.06680000      3.54745000     13.41860000     -0.04352330     -0.03869770     -0.06393680       1
O              -0.06232800     16.09090000     12.58240000      0.02541840      0.04207230     -0.04072620       8
H               0.15363800     16.59870000     10.79040000     -0.00967659     -0.02146680      0.00272013       1
H               1.12542000     17.42890000     13.12030000     -0.00668532     -0.02157350      0.01904610       1
O               1.26374000      8.29380000      5.70248000     -0.03334370      0.05232440      0.01050230       8
H               0.96540400     10.00060000      6.60082000      0.01031370     -0.05219830     -0.01621190       1
H               2.92892000      7.87116000      6.16142000      0.02111890     -0.00387530      0.00134374       1
O              13.99150000     18.21230000      9.57679000     -0.06398040     -0.13022400     -0.11912500       8
H              12.91070000     16.18620000      9.33594000      0.05512530      0.09090760      0.00628208       1
H              14.25290000     18.09260000     11.22170000      0.03057210      0.00501578      0.11833400       1
O              14.31250000      8.58127000     15.46040000     -0.04730890      0.01191310     -0.02302960       8
H              12.83200000      7.45459000     15.26260000      0.02066160     -0.00158559      0.01837990       1
H              13.48540000     10.04210000     14.61520000      0.01995620     -0.01233180      0.01196600       1
O               9.99108000      0.88132800      2.28400000      0.04122360     -0.05265970      0.04581970       8
H              11.10800000     -0.22886200      3.37202000     -0.01241330      0.03567740     -0.00474414       1
H               9.91002000     -0.52770400      1.00855000     -0.01389570      0.01810450     -0.00739199       1
O              18.13200000      8.28119000     18.22210000     -0.01754870      0.00293465      0.02325070       8
H              16.45030000      9.12467000     18.22760000      0.03107320     -0.01350780     -0.01683740       1
H              19.29010000      9.18336000     17.14750000      0.00082028      0.01101380     -0.00366041       1
O              22.93290000     11.26230000      1.96395000     -0.00341082     -0.01811000     -0.00735749       8
H              23.85860000     10.03480000      3.03190000     -0.00763270      0.01164640      0.00365158       1
H              21.56240000     10.21790000      1.18207000      0.01256820      0.02133940      0.01022760       1
O              13.29770000     17.48780000      2.54553000      0.00736013     -0.05242200      0.00413488       8
H              13.28800000     18.83760000      3.69277000      0.00108071      0.04192320      0.02491610       1
H              15.14170000     17.21800000      2.16242000      0.00258891      0.00769120      0.01373740       1
O               2.24351000      4.38738000     22.33510000      0.03134920     -0.02303760      0.02806040       8
H               1.43321000      2.72927000     22.25780000     -0.00331187      0.02176000     -0.00480334       1
H               3.69642000      4.02858000     23.56330000     -0.03102980     -0.00108631     -0.02002450       1
O              11.37280000     11.88400000     13.28720000      0.02479520     -0.12727700     -0.22922600       8
H               9.74536000     11.21910000     12.54020000      0.00926364      0.02054450      0.01669270       1
H              11.01240000     12.62420000     14.61070000     -0.05087410      0.11367000      0.19092200       1
O               7.17397000      0.84524700      7.83882000      0.04231450     -0.00951498     -0.03517810       8
H               8.01977000      0.18800100      9.32324000      0.00832067     -0.00409197     -0.00827520       1
H               8.49579000      0.64036200      6.43004000     -0.03158760      0.01024410      0.04678540       1
O               6.36647000      5.89772000     14.54110000      0.02883170     -0.02286700     -0.11712100       8
H               5.13149000      7.47421000     14.06920000      0.00719021      0.01249940      0.01452200       1
H               6.84812000      5.70980000     12.27810000     -0.02178740      0.00311199      0.10215400       1
O              18.17450000      0.65070600      4.50438000     -0.04352160      0.04728650     -0.06062840       8
H              18.52970000      0.37892900      2.70354000      0.01895130     -0.02548290      0.02001420       1
H              17.35930000      2.31183000      3.81803000      0.02307610     -0.02375520      0.04394730       1
O              10.39870000     14.51530000     17.33890000     -0.08133100     -0.09613910     -0.17196500       8
H               8.59971000     14.64920000     17.30260000     -0.00838237     -0.00506117      0.02086960       1
H              11.06190000     15.33290000     18.53480000      0.07785970      0.10458500      0.14721900       1
O               3.04108000      9.11427000     21.44770000      0.01148110     -0.00482614     -0.00248622       8
H               2.48883000      7.39614000     21.83260000     -0.00808335      0.01232740     -0.00162377       1
H               2.29730000     10.25130000     22.67900000     -0.00132940     -0.00325634     -0.00570220       1
O              14.97680000     18.18380000     14.66670000      0.01454160      0.00662205      0.05339540       8
H              15.93230000     18.99020000     16.22070000     -0.03325770     -0.02233460     -0.06593660       1
H              16.01770000     16.70590000     14.48210000      0.00509771     -0.00272428      0.00471145       1
O               5.97481000      8.25003000      7.90137000      0.00692604      0.02399950     -0.01095760       8
H               4.82621000      6.94716000      8.66491000      0.02812410      0.00772188     -0.00250813       1
H               7.78294000      8.09316000      8.35175000     -0.02346320     -0.01125350      0.00392721       1
O              21.86700000     10.16300000     10.40310000     -0.00137130      0.10018600     -0.01586640       8
H              20.65470000     10.97080000      9.05847000      0.03699380     -0.03160830      0.05164200       1
H              22.60510000     11.84240000     11.30990000     -0.02871320     -0.06177400     -0.02966930       1
O              18.60460000      5.38989000      3.54780000      0.03161300      0.06546280     -0.04539430       8
H              18.54760000      6.92170000      2.31227000     -0.01135450     -0.04357020      0.02760830       1
H              20.43620000      5.61343000      3.79152000     -0.01463510     -0.01900330      0.01310560       1
O               5.10556000      2.77380000     18.19350000     -0.01483590      0.07493680      0.00773911       8
H               5.36956000      3.59948000     16.50890000      0.00710389      0.00469869      0.00938671       1
H               4.84295000      4.28500000     19.44350000     -0.00122218     -0.04969700     -0.03806640       1
O               4.05922000      9.69289000     13.66010000      0.12637200      0.04158130      0.21102300       8
H               5.05118000     11.45830000     12.84000000      0.01656800      0.01081040     -0.00963534       1
H               3.29436000      9.58085000     12.33970000     -0.14599400     -0.03254490     -0.22479600       1
O              18.88970000      9.71174000     23.04260000     -0.02071600     -0.03392280     -0.01821340       8
H              18.78800000      8.40508000     21.61890000      0.00066825      0.03073230      0.01125390       1
H              17.17470000      9.76427000     23.75230000      0.00102663     -0.00230063     -0.00681720       1
O              11.97830000      4.74196000     23.15150000      0.02370770      0.08750540     -0.05636370       8
H              11.55260000      3.35486000     23.93680000     -0.01224570     -0.11811900      0.06563180       1
H              10.15280000      5.30468000     22.96460000      0.01661090      0.01979430     -0.01372230       1
O              10.66640000     21.12900000     10.90280000     -0.00611720      0.01216260      0.03797270       8
H              12.05130000     21.72800000     11.99760000     -0.02028110      0.00886987     -0.00472841       1
H              11.62920000     20.02720000      9.84019000     -0.00330693     -0.00514588     -0.00816846       1
O               8.21128000     17.84930000     14.05660000      0.04124820     -0.03910810      0.04239800       8
H               9.25694000     16.22270000     14.74320000     -0.01891310      0.05142470     -0.02317740       1
H               9.13016000     19.22840000     13.28260000      0.02209620      0.01186360     -0.01979400       1
O              17.41400000     14.34620000     20.47300000      0.02136620      0.07312310     -0.03644100       8
H              17.93550000     12.83670000     20.96070000     -0.00119125     -0.12223100      0.04422740       1
H              19.17030000     14.54750000     19.89850000     -0.01513720      0.03112120     -0.02215330       1
O               1.64624000     16.92260000      7.18047000      0.01391840     -0.00541193     -0.04164640       8
H               2.92344000     15.43090000      6.87290000     -0.00512785      0.01092020      0.02463310       1
H               1.12094000     17.04780000      5.29546000     -0.00201320     -0.00871982      0.05963210       1
O               5.36534000      1.60942000      1.96017000     -0.01215890     -0.02071940     -0.00166229       8
H               4.57630000     -0.08325300      1.66668000      0.02008980      0.03361410      0.01429230       1
H               6.83215000      1.47896000      3.10259000     -0.01757590     -0.00439727     -0.02384910       1
O              14.63710000      7.26778000      6.11406000      0.00911205      0.02792530     -0.02594860       8
H              15.06840000      8.65630000      4.83480000     -0.01649240     -0.04310130      0.02266950       1
H              15.29450000      5.74732000      5.34247000      0.00739073      0.01278180      0.00606229       1
O               8.34016000      7.21309000     22.27080000     -0.01654540      0.02496360     -0.00803409       8
H               8.75973000      8.68394000     23.52900000     -0.01325670     -0.03147090     -0.01395780       1
H               6.52612000      7.16492000     22.34310000     -0.00250476      0.00251839     -0.00175094       1
O               3.22988000     14.61850000     18.18380000     -0.01083810     -0.02461400     -0.00489224       8
H               3.70347000     14.50540000     16.38850000      0.00358804      0.00220387      0.02802670       1
H               4.59252000     14.26270000     19.37170000     -0.00385042     -0.00970133     -0.02080860       1
O              17.12860000      7.99819000     11.20120000      0.19404800     -0.00354051     -0.14326900       8
H              15.84580000      7.91898000     12.03840000     -0.21154600      0.01392700      0.16177100       1
H              16.92880000      6.33755000     10.55500000      0.02067800     -0.01185760     -0.02261250       1
O               5.14208000     13.63170000      7.13525000      0.02813370     -0.08418790     -0.04365000       8
H               5.24682000     11.32990000      7.20848000     -0.00358024      0.09710000     -0.00032436       1
H               8.31446000     14.84550000      4.99064000      0.04013500     -0.03981660      0.03707540       1
O              13.68020000     21.16570000      5.91456000      0.00734113     -0.02785070      0.01004370       8
H              13.90940000     19.61140000      7.10697000      0.00439008      0.05312610     -0.02395330       1
H              15.33590000     21.99810000      5.73984000     -0.01149140     -0.01003310     -0.00373384       1
O              10.57490000      6.79320000      8.76628000      0.01948960     -0.00906669     -0.00404218       8
H              11.68770000      6.37843000      7.27905000     -0.01246030      0.01313280      0.02979850       1
H              11.44240000      6.13091000     10.25250000     -0.00418355     -0.00273453     -0.01560110       1
O              11.34320000      4.57406000     15.87630000     -0.09090650      0.00694849     -0.00515373       8
H              10.50200000      4.41178000     17.58850000      0.01760660      0.00930546     -0.03798550       1
H               9.73069000      4.65302000     14.58840000      0.04982660      0.00457135      0.05707560       1
