192
Lattice="24.70271 0.0 0.0 0.0 24.70271 0.0 0.0 0.0 24.70271" Properties=species:S:1:pos:R:3:force:R:3 TotEnergy=-1103.47037 cutoff=-1.0 nneightol=1.2 pbc="T T T"
O       22.69370000      19.13301000      17.18522000      -0.01260570       0.01213780      -0.00381523
H       20.98010000      19.73386000      16.65432000       0.02855270      -0.02876740       0.00821600
H       23.02020000      17.29795000      17.06582000      -0.01533040       0.01540320      -0.00529551
O        1.69438000      23.62719000      22.42295000      -0.12723600      -0.04722290      -0.06256710
H        3.31848000      23.66949000      22.68887000       0.12513600       0.00884397       0.02105890
H        1.57758000      22.54699000      20.74355000       0.00123859       0.04069820       0.04564110
O       13.55510000       1.66496000      16.09100000       0.06666620       0.15277000      -0.02231410
H       14.01270000       2.42690000      17.69440000       0.00501204      -0.00943118       0.00119159
H       12.85970000       0.21873000      16.29830000      -0.07092290      -0.13931700       0.02360860
O       19.71066000      14.57901000       0.16795800      -0.02995290       0.00138969       0.01918320
H       21.11972000      14.17171000      23.86986700       0.01001560       0.00066414      -0.01845440
H       18.85264000      16.11800000      24.29041100       0.02445680      -0.00824186      -0.00075973
O        5.69448000       8.08919000      20.29140000       0.02630110       0.02729770       0.02209290
H        7.06639000       9.31389000      20.67700000      -0.00633870      -0.01644050       0.01390810
H        5.67042000       8.49639000      18.57830000      -0.01324120      -0.00956789      -0.04332540
O       19.67211000      10.01220000       7.81972000      -0.00089825      -0.08493840      -0.05658300
H       18.95366000      11.60710000       7.97139000      -0.02634540       0.03900780      -0.00288688
H       18.60437000       8.88555000       6.31467000       0.03193140       0.04045690       0.04029820
O       21.53559000       3.99339000      14.44580000       0.02818920      -0.02958230      -0.01201770
H       23.35589000       3.36719000      14.28380000      -0.03704250       0.01940440       0.00329415
H       20.67579000       2.47449000      13.79550000      -0.00533367       0.01595090       0.01094550
O        0.38818300      17.81812000       7.90614000       0.03222030      -0.05211920       0.01692760
H        1.85139000      18.37192000       8.91321000      -0.00900313       0.00188495      -0.00734869
H       24.11536700      19.08392000       7.20878000      -0.01949920       0.04919160      -0.01136250
O        8.32849000      14.84412000      17.17300000      -0.04100970      -0.01466380      -0.04023680
H        6.84599000      14.26272000      15.87000000       0.04162820       0.01643630       0.05547610
H        8.26489000      14.13242000      18.89850000      -0.00246212      -0.00503704      -0.02560130
O        7.43066000      22.19732000      22.71592000      -0.03354690       0.00261552       0.00213494
H        9.10930000      21.99042000      23.17982000       0.06241410       0.00043495      -0.01015050
H        6.94203000      21.61182000      24.37892000      -0.02465760      -0.00731068       0.00572575
O       11.22381000       3.84000000       8.54359000      -0.00972317       0.00488015       0.06250990
H       12.04071000       4.32206000       7.03310000       0.02212050       0.00672052      -0.02690940
H       11.86111000       4.82244000      10.06950000      -0.01546230      -0.01594080      -0.03349350
O       13.19371000       4.48079000       3.76848000      -0.02377210      -0.03003750      -0.06674530
H       11.48041000       5.10649000       2.93378000       0.05124610      -0.02398650       0.02508050
H       13.96851000       2.90909000       2.53708000      -0.02300050       0.05091400       0.03832130
O       12.30970000      14.51362000       8.69051000      -0.00188784       0.06070040       0.20599400
H       11.99600000      13.81052000       7.30551000      -0.02539150      -0.08319430      -0.18562300
H       11.24630000      13.43492000       9.88881000       0.04139910       0.03473080      -0.02221070
O        4.12349000      14.24140000      13.35389000      -0.02117420      -0.05404300       0.00269443
H        2.61699000      13.85090000      14.42489000       0.01361320       0.01748060      -0.00874760
H        4.09449000      12.64810000      12.28799000       0.00957288       0.03953090       0.01679880
O        0.70907600       2.15384000       3.10100000       0.00804103      -0.07863810       0.00622181
H        1.89721000       2.05663000       1.68116000      -0.00850080       0.00438654       0.01092340
H        0.56207700       0.18805400       3.63484000       0.00328686       0.07795440      -0.01885810
O       17.05112000       0.43149000       8.30399000      -0.02690960      -0.02772050      -0.01930290
H       17.17732000       1.41789000       6.70389000      -0.01237910      -0.02497590       0.02876430
H       15.54052000      23.83580000       8.39149000       0.03837750       0.05107210      -0.01319630
O       15.85162000      11.11330000       0.25589000       0.01674060       0.01234020      -0.01042500
H       15.47902000      10.69220000      23.17970000       0.00106341      -0.00301607       0.01065750
H       17.46432000      12.10380000       0.14679000      -0.01534790      -0.00519151       0.00187227
O        2.00751000      17.28138000       2.99881000      -0.01223790       0.11877800       0.06258310
H        1.69271000      17.34528000       4.90621000       0.00192844      -0.01085570      -0.03429850
H        2.13341000      15.72018000       2.42981000       0.00848794      -0.10649300      -0.02964490
O       17.91098000      19.14200000      14.18139000      -0.06171480      -0.00110963       0.02288170
H       18.16488000      20.91780000      13.79539000      -0.00877255      -0.00055800       0.00329347
H       16.00128000      18.96510000      14.83939000       0.07542620       0.00556332      -0.02241770
O        7.81918000       5.47871000       2.50272000      -0.03355290      -0.01301300       0.05206860
H        6.51818000       4.97271000       3.86245000       0.04031180       0.02073150      -0.02055150
H        7.20588000       4.38601000       1.19810000      -0.00254133       0.00768011      -0.02437780
O        4.76339000      18.70270000      10.47391000      -0.03268990      -0.03642040       0.05800530
H        6.47989000      18.98140000      10.10721000       0.03359470       0.00069010      -0.01683460
H        4.77459000      17.35810000      11.92531000      -0.00697892       0.03631620      -0.04483000
O       10.71431000       6.21911000      13.43208000       0.05299340      -0.12288600       0.00005635
H       10.38571000       7.77717000      13.98228000      -0.01312160       0.08681440       0.02650040
H       11.95051000       5.32474000      14.62398000      -0.03499350       0.02371520      -0.02923970
O        5.87469000       2.77768000      23.40394000      -0.06563370       0.06492460      -0.00235203
H        5.54648000       2.83974000      21.59890000       0.00567200      -0.01010520       0.00105223
H        7.03772000       1.70697000      23.98402000       0.05770790      -0.06769780       0.00308709
O       20.26529000       2.90538000       2.91579000       0.10093600      -0.08659230      -0.00702940
H       19.46559000       4.36861000       3.03539000      -0.03963550       0.09918470       0.00802386
H       22.26009000       3.19897000       2.86069000      -0.06049170      -0.01408320       0.00387077
O        0.06929300      11.42198000       7.91969000      -0.05670180      -0.09622500      -0.02031870
H       22.67167000      10.60948000       7.64909000       0.06034220       0.03171400       0.01402860
H       24.66839000      13.13148000       7.98649000      -0.01057570       0.06508000       0.00685174
O       10.30210000      11.18559000      12.74680000      -0.02048590       0.04696440      -0.01393490
H        9.35597000      11.57759000      11.03800000       0.00298057      -0.01898450       0.05318080
H       10.01730000      12.61759000      13.97610000       0.00120208      -0.03292490      -0.03031860
O        6.66381000      19.92780000      17.84860000       0.02443390      -0.02770030       0.03917710
H        7.26621000      18.12630000      17.88010000      -0.01119060       0.02489590      -0.01246860
H        7.10381000      20.39700000      19.63730000      -0.00982701       0.00511684      -0.02315950
O        8.04079000      10.81039000       1.83588000      -0.02816680       0.12359600      -0.01383150
H        7.86819000       9.17799000       2.18528000      -0.02225580      -0.10080600       0.01537870
H        6.30779000      11.69939000       1.91858000       0.03963110      -0.03100610       0.00026230
O       14.51660000       9.05979000      20.25470000       0.00074497      -0.04114280       0.02353400
H       14.93790000       9.53249000      18.54620000       0.00884728      -0.00650263      -0.00254647
H       14.97170000       7.19209000      20.65570000      -0.00493228       0.04663320      -0.02244850
O        2.16939000      22.16482000      17.34880000      -0.02387580       0.07906120      -0.00226489
H        0.69818700      21.21562000      17.22340000      -0.04667160      -0.02565430      -0.00902764
H        3.43622000      21.06572000      17.62270000       0.07004760      -0.05449550       0.00531570
O       23.53940000      21.04250000       1.23331000      -0.00815574      -0.00336449      -0.00120187
H       24.46731900      19.49470000       1.47998000       0.00032935      -0.01556830       0.01118370
H       24.68978500      21.87970000       0.11646900       0.00583022       0.02159600      -0.01757880
O        1.02613000       1.67610000      13.04760000      -0.04639690       0.09478540       0.07713580
H        1.20011000       1.23615000      11.48540000       0.00294976      -0.01461090      -0.14823100
H        1.85416000       0.35976000      13.63010000       0.05337090      -0.08557320       0.07058520
O       16.01772000       3.56948000      20.64482000      -0.03284560      -0.03615840       0.06649520
H       17.80502000       3.50188000      20.57442000       0.02340300       0.01347020      -0.01373630
H       15.79702000       2.58958000      22.38002000      -0.00065019       0.03020170      -0.05145900
O        6.03191000       4.71168000       7.74711000       0.05039160      -0.01263350       0.00953866
H        7.97512000       4.71708000       8.14491000      -0.04917310       0.00056371      -0.00920229
H        5.65956000       2.92428000       7.96161000      -0.00544847       0.00664103      -0.00116938
O       12.49742000      12.16769000       4.26242000      -0.01472790      -0.01490640      -0.01955060
H       13.54102000      12.28349000       2.60005000      -0.04268370      -0.01967290       0.03967800
H       10.76312000      11.25509000       4.17951000       0.05852320       0.03112770      -0.02642130
O       15.83260000      11.06649000      15.00100000      -0.02261740      -0.02068710      -0.04412600
H       17.55910000      10.78049000      14.21340000      -0.02908050      -0.00709865       0.00826529
H       14.49930000      10.33349000      13.72740000       0.04850430       0.02713750       0.03946220
O        6.87591000      11.47141000       8.91625000       0.04564590       0.04102120      -0.03793200
H        7.36871000      11.33151000       7.13442000      -0.00931924       0.00361462       0.01969800
H        5.89491000      10.05731000       9.27623000      -0.02878720      -0.03937860       0.01504130
O        3.41372000       2.57113000      18.93470000       0.00363447      -0.06024720      -0.02204260
H        3.39292000       0.77613000      18.03440000      -0.00660376       0.06088470       0.03199670
H        3.98622000       3.78232000      17.70200000       0.00359887       0.00352296      -0.01196490
O        3.32841000       8.28801000      10.64539000       0.00140245      -0.00977430      -0.03877180
H        3.79241000       6.92591000       9.29849000      -0.01615750       0.03992120       0.03281720
H        2.16731000       9.64491000       9.92519000       0.00826804      -0.03505250      -0.00066369
O       15.48610000      17.72180000       3.10369000       0.00352816       0.03974140       0.02604160
H       16.24260000      17.78890000       4.80269000      -0.00789992      -0.01275460      -0.01883490
H       15.58950000      16.07280000       2.48299000       0.00268728      -0.02821840      -0.00012502
O        3.61991000      23.90828900       8.42069000       0.12795100      -0.02892110       0.08025360
H        3.93791000      22.25030000       9.37789000      -0.00662637       0.04059060      -0.02475230
H        2.11151000      23.78120000       7.79659000      -0.12281500      -0.01359980      -0.05428370
O       20.20959000       9.10039000      12.73679000      -0.00980480      -0.06094460      -0.02006760
H       20.41079000       7.24717000      13.14879000       0.00639328       0.03139530       0.01821710
H       19.75729000       8.64891000      10.95589000       0.00681235       0.03474600       0.01314160
O       15.51135000      19.59632000      20.34840000       0.03158440      -0.04623210       0.01307500
H       17.25829000      19.25912000      21.57715000      -0.06925570       0.00782019      -0.04343680
H       14.81215000      18.07352000      19.28714000       0.03141350       0.04209400       0.03594950
O        5.37468000       5.60151000      15.20259000      -0.01137330      -0.00461809      -0.01821880
H        7.03528000       4.93311000      14.86289000      -0.00057766       0.00458615      -0.00330208
H        4.44458000       5.48871000      13.58471000       0.01128340       0.00678736       0.02224120
O       12.09890000      23.59231000       9.84926000       0.00467599       0.08345050      -0.23808000
H       11.56040000       0.89204300       9.24080000       0.01925000      -0.06504000       0.02720460
H       11.95260000      23.37877000      11.39800000      -0.02252280      -0.01738650       0.21181100
O       12.51612000      21.35886000      24.06889000       0.00684528       0.02520200      -0.05179430
H       13.61482000      20.58047000      22.67929000      -0.01079830       0.00558824       0.01619300
H       12.72602000      20.52602000       0.87528000       0.00752263      -0.03088410       0.03581960
O       13.74890000      16.39488000      16.30389000      -0.05019600      -0.05389190      -0.04544370
H       14.99520000      15.01269000      15.73967000      -0.03468050       0.02593920       0.01163990
H       11.84480000      15.70568000      15.64942000       0.08335680       0.02768620       0.03814630
O       21.62520000      15.69060000      11.36010000      -0.00138849       0.02576500       0.00231269
H       21.16700000      16.76980000      12.83990000       0.00440699      -0.01231010      -0.03385030
H       22.16100000      16.80010000       9.92296000       0.00028242      -0.01536790       0.03445650
O       10.98680000      21.84630000      15.03742000       0.18742700      -0.02204660      -0.07970370
H        9.54636000      21.64570000      15.75493000      -0.13258800      -0.03602770       0.07073620
H       12.12710000      20.21650000      15.00278000      -0.05319550       0.05495950       0.01089080
O       22.97340000      22.02339000       6.05619000       0.02981430      -0.00821379       0.00044381
H       21.48270000      22.77349000       6.58529000      -0.03352830       0.01787470       0.01283190
H       22.90070000      21.85749000       4.23649000      -0.00083271      -0.00292129      -0.00963590
O       17.47923000       7.58376000       3.80927000      -0.06623460      -0.00883955      -0.05534930
H       16.74807000       8.95764000       2.52243000       0.02693340      -0.03161240       0.03326080
H       16.01313000       6.19831000       3.38933000       0.03692870       0.04525790       0.03068930
O       17.80640000       0.06881000      13.58690000      -0.00681789       0.00287836       0.05009510
H       17.31040000       0.10801000      11.92670000      -0.00299918       0.00269321      -0.05924440
H       16.24160000       0.76011000      14.36540000       0.01836070      -0.00565970       0.00769439
O       23.98375500      14.07310000      16.39429000       0.00397234       0.00293103      -0.01345620
H       23.57427000      12.95930000      17.74249000       0.00170759      -0.00877364       0.03808080
H       22.74888000      13.32660000      15.31849000      -0.00429878       0.00535501      -0.02811080
O       18.58119000      19.61769000      24.36924800       0.01898250       0.01616590      -0.01105460
H       20.28769000      20.52239000      24.52179600      -0.03998720      -0.02475770       0.01502850
H       17.42899000      19.35129000       1.14915000       0.02350670       0.00825300      -0.00923456
O       21.96520000      11.31130000      20.30082000       0.01608920       0.00982287       0.00090656
H       23.56270000      11.05270000      21.22522000      -0.01082350      -0.00957317      -0.00490397
H       21.56220000       9.67191000      19.61162000      -0.00588205      -0.00454762       0.00465999
O        6.44711000      20.13069000       2.67811000       0.02115150       0.03113160      -0.02165920
H        4.97841000      19.16049000       2.72862000      -0.03142700      -0.02487810       0.00614865
H        7.43141000      19.82109000       4.12308000       0.00970038      -0.00514039       0.01986880
O        9.42111000      19.13942000       8.39229000       0.01706690       0.03469460       0.01837030
H       10.55860000      17.71842000       8.48959000       0.00141870      -0.00301156       0.00026329
H       10.34670000      20.61822000       9.22659000      -0.01643250      -0.02663800      -0.02611750
O        2.53426000      12.20169000       2.25305000       0.05581540       0.05650250       0.04407520
H        1.76356000      12.00099000       3.85807000      -0.01746640      -0.01876570       0.00371467
H        1.98660000      11.40719000       0.83551300      -0.03664550      -0.04749910      -0.04557770
O       17.62663000      14.98894000       8.30803000      -0.01060500      -0.00150699      -0.03266350
H       15.78665000      15.03002000       8.62319000       0.02866780      -0.00658464       0.01948840
H       18.97772000      14.93663000       9.56622000      -0.02261710       0.01012250       0.01662290
O       20.38627000       5.87876000      19.36870000       0.05001860      -0.00946426      -0.00812374
H       22.18630000       5.48331000      20.05660000      -0.04806120       0.00502330      -0.01275530
H       20.48207000       5.32885000      17.57510000       0.00231861       0.00394803       0.01864280
O        1.46879000       9.35191000      22.59546000       0.04868430       0.05512010      -0.02037760
H        1.08869000       7.64421000      22.54040000      -0.02058690      -0.04622850       0.00740544
H        3.12219000       9.31321000      21.55184000      -0.03025580       0.00033866       0.02388250
O       24.54510000       4.59596000      22.12979000       0.00877814      -0.00560917      -0.00307688
H       23.94370000       3.46469000      23.41419000       0.00188259      -0.00061667      -0.00496175
H        1.21559000       3.73215000      21.21049000      -0.00935291      -0.00389844       0.00220092
O       16.04350000       1.21429000       0.94708000       0.00345000      -0.04075600       0.01445970
H       17.82030000       1.23949000       1.83628000      -0.03670070      -0.00274560      -0.02544140
H       15.26480000      24.13540000       0.77978000       0.02492600       0.04300730       0.00245136
O        9.86371000      11.48360000      21.40470000      -0.06113070       0.02765550       0.00420132
H       11.35561000      10.68520000      21.15740000       0.07089370      -0.03305600      -0.03061400
H        9.64441000      11.06230000      23.13240000      -0.01698580       0.00802954       0.02642020
