192
Lattice="24.63419 0.0 0.0 0.0 24.63419 0.0 0.0 0.0 24.63419" Properties=species:S:1:pos:R:3:force:R:3 TotEnergy=-1103.56744 cutoff=-1.0 nneightol=1.2 pbc="T T T"
O        3.90942000      12.48010000       4.21019000       0.00677570      -0.00464210       0.01098020
H        4.41482000      12.70380000       2.49260000       0.00443034       0.00083183      -0.00091023
H        2.12064000      12.76420000       4.23492000      -0.00350585       0.00162263      -0.00413991
O       23.04990000      22.79630000      15.10170000      -0.01018450       0.01215210      -0.00130604
H       22.94910000      23.66140000      13.48580000       0.00366180      -0.00691358       0.00700685
H       22.05550000      23.85888800      16.23370000       0.00758439      -0.00149166      -0.00359948
O        9.42601000      16.26280000      14.69800000       0.00516818      -0.01458600       0.00976376
H       10.29450000      14.99080000      15.71280000      -0.00675184       0.01370760       0.00088761
H        8.33049000      17.15240000      15.82630000      -0.00474862      -0.00518233       0.00305718
O       19.73590000       4.61575000       8.49173000       0.00296790       0.00616536      -0.00564908
H       19.64470000       2.81360000       8.65556000      -0.00292118      -0.00103949       0.00398172
H       19.27100000       5.25954000      10.12430000      -0.00091362      -0.00577347       0.00420053
O       11.65420000      20.59330000      20.49760000       0.00175063       0.00642791      -0.00189506
H       11.29810000      19.01310000      19.67280000       0.00205342      -0.00183210       0.00050249
H       10.20100000      20.92900000      21.52970000      -0.00167682      -0.00076753       0.00006037
O        3.00158000       3.68579000      17.97350000       0.00001368       0.00308522      -0.00695281
H        4.34941000       3.83781000      16.75860000       0.00046299       0.00092562      -0.00092966
H        3.50848000       2.20077000      18.98520000      -0.00446975       0.00774948      -0.00588658
O        8.91521000       3.82387000      22.99510000      -0.01307110      -0.00214159       0.03388620
H        9.29563000       3.69871000      21.26850000       0.00440384      -0.00462777      -0.02635830
H        8.91477000       2.12488000      23.67150000      -0.00053315       0.01380750      -0.00722687
O        3.73444000      13.37420000      16.82250000      -0.00256148      -0.00883454       0.00393534
H        4.60190000      12.70700000      15.35620000      -0.00058248      -0.00322218      -0.00259441
H        3.44604000      11.84140000      17.81300000       0.00299880       0.00663064      -0.00334161
O        8.28436000      18.65510000      24.13030000       0.00379874       0.00004629       0.00095738
H        7.69697000      17.51460000       0.78671000      -0.00500063       0.00249916      -0.00352230
H        9.70508000      17.71600000      23.50670000       0.00010580       0.00037441       0.00397821
O       22.12250000      16.57220000       8.17817000       0.00062621      -0.01282060       0.00639890
H       23.81880000      16.15560000       8.73504000      -0.00274508       0.00211655      -0.00736317
H       21.24410000      14.97020000       8.23310000       0.00438411       0.00646039       0.00333548
O       16.03630000      17.37140000      10.45760000      -0.00362472       0.00071185       0.00189133
H       17.09640000      17.75830000      11.92360000      -0.01921340      -0.00019481      -0.00876781
H       14.21180000      17.49740000      10.87560000       0.02200580       0.00046854       0.00114496
O        3.44709000      17.31220000      12.78360000       0.00238620       0.00207900       0.00500290
H        3.22476000      15.91530000      13.90530000      -0.00029327      -0.00504619      -0.00079316
H        4.14424000      16.58590000      11.27150000      -0.00645105       0.00215604      -0.00229246
O       20.30610000      23.58620000       4.20703000      -0.00459529       0.01117920       0.00655407
H       21.08380000       0.29711100       3.22529000       0.00617840      -0.00217137       0.00500146
H       21.51510000      22.87030000       5.40315000      -0.00982453       0.00604658       0.00491269
O       24.35480000      13.54030000       1.58755000      -0.00823172       0.00099044      -0.00724470
H       22.51330000      13.54770000       1.51088000       0.00449422       0.00297081       0.00425817
H        0.27451000      12.60230000       0.12978900      -0.00699095      -0.00099675      -0.00190918
O        8.78587000       2.56926000      17.84740000      -0.00464572      -0.00780182      -0.00179651
H        7.46340000       1.40711000      18.42190000       0.00979421       0.00654606      -0.00182602
H        8.78012000       2.50123000      16.03120000      -0.00023512       0.00313214       0.00393969
O       15.71720000       7.28340000       5.76569000      -0.00439024      -0.00846623      -0.00290987
H       17.23490000       6.63685000       6.50063000       0.00478333       0.00054375       0.00973939
H       15.05680000       8.65528000       6.73585000       0.00157314       0.00821706       0.00890813
O       23.93820000       2.48854000       1.74852000       0.00568642       0.00221400       0.00169483
H       24.14790000       3.68139000       0.37986900      -0.00202743      -0.00624932       0.00235023
H        0.54811000       3.09622000       2.93085000      -0.00712060       0.00325163      -0.00001684
O       13.59630000       2.05353000       0.17192600      -0.01051180       0.00412621       0.02931010
H       12.58410000       0.56314200       0.47471400       0.01330090       0.00986230      -0.01650760
H       14.27870000       2.10345000      23.13550000       0.00027100      -0.01492260       0.00003051
O        1.81576000      23.76000000       9.69467000       0.00386254       0.00275314       0.00576579
H        2.69669000      23.73740000      11.29440000      -0.00278348      -0.00462819      -0.00844586
H        1.35475000       0.86664600       9.46555000       0.00420741       0.00292438       0.00135847
O       10.86640000       9.38876000      23.23880000       0.01435040       0.00533023      -0.00456351
H       10.62920000       7.80253000      24.08660000      -0.00362596      -0.00120398      -0.00086213
H       12.67000000       9.67861000      23.39690000      -0.00465006      -0.00388869       0.00107402
O       23.41420000      10.41520000      21.43310000       0.00111101       0.00588459       0.00938691
H       24.58664100       9.15542000      20.81060000       0.00149883       0.00218395       0.00115881
H       21.73170000       9.72759000      21.45680000      -0.00354546      -0.00884506      -0.00157241
O       15.91580000      14.27780000      22.68400000       0.00274334      -0.00934069      -0.00174535
H       17.20740000      15.12510000      21.71730000      -0.00223809       0.00130529       0.00067462
H       16.35170000      14.62290000      24.41200000      -0.00756830       0.00298000       0.00349638
O       21.88680000       9.77995000      13.87430000      -0.00166320      -0.00083263      -0.00104223
H       22.75100000       8.37606000      14.66090000      -0.00519006      -0.00062976       0.00104559
H       21.94920000      11.10020000      15.12990000       0.00019272       0.00777195       0.00463470
O       20.49660000       2.22299000      19.02060000       0.00731127      -0.00168354       0.00815037
H       20.71680000       4.01584000      19.25290000      -0.00405531      -0.00251297      -0.00061956
H       19.61610000       1.67340000      20.52230000      -0.00098399      -0.00056505      -0.00870898
O       11.18500000      18.96840000      11.10160000       0.00314124       0.00751607      -0.01017130
H       10.46570000      18.55720000      12.73730000       0.00273383      -0.00496497      -0.00243849
H       12.28510000      20.35650000      11.43290000      -0.00110103       0.00640595       0.00363713
O        5.95003000       6.80279000       5.32210000      -0.00465255       0.00083902       0.01157590
H        4.81831000       8.15467000       5.77003000       0.00034882       0.00646443      -0.00659167
H        7.51965000       7.34829000       6.05855000       0.00288305      -0.00286208      -0.00456620
O        8.63495000      13.63500000       9.90932000       0.00713018       0.00837019       0.01387920
H        9.20484000      13.95530000      11.64060000      -0.00341750      -0.00100213      -0.01727470
H        8.23959000      15.29830000       9.33065000       0.00330381       0.00578351      -0.00617487
O        3.39734000       6.17482000       0.22091000       0.00179530       0.00055181       0.00728533
H        2.76584000       7.13750000       1.62745000       0.00276590      -0.00068446      -0.00288826
H        5.07062000       5.69438000       0.77041000      -0.00318003       0.00087315      -0.00350002
O       23.76480000       7.45391000       4.85941000      -0.01200900       0.01212160       0.00212008
H       22.35130000       7.75125000       6.01489000       0.01309320      -0.00452311      -0.00958786
H       23.72344400       8.95888000       3.81114000       0.00178974      -0.00649598       0.00657988
O       12.48850000      22.20610000      15.26390000       0.00279334       0.00103770       0.00948804
H       11.93080000      22.73370000      16.93480000       0.00126308      -0.00227459      -0.01062120
H       14.02390000      21.28460000      15.62380000      -0.00023391       0.00407566      -0.00305928
O        5.02697000      24.46920000      20.22820000       0.00309382      -0.00370416      -0.00152505
H        4.48530000      24.52160000      21.98010000      -0.00217483      -0.00781791       0.00703231
H        4.41432000      22.90400000      19.54580000      -0.00333581      -0.00657865       0.00157665
O        3.39096000      17.29830000       7.58671000      -0.00553655      -0.00421829       0.00281878
H        3.76995000      16.59150000       5.96683000       0.00424871      -0.00338879      -0.00000914
H        4.54745000      18.66500000       7.89613000       0.00337231       0.00479599      -0.00349094
O        9.44140000       9.31218000      17.38880000       0.00722766      -0.00530019       0.00595966
H        8.73640000       7.81121000      18.16050000       0.00299690       0.00642802      -0.00546604
H       10.47680000      10.02600000      18.72110000      -0.00748807      -0.00243254      -0.00351954
O       20.17810000      20.87500000       0.29951000      -0.00837186      -0.00733513      -0.01545570
H       20.25090000      21.51190000       2.01771000       0.00329619       0.00045383      -0.00296071
H       19.40900000      19.24170000       0.40609300      -0.00026665      -0.00840347       0.00251867
O       18.08260000      20.22930000      14.65790000       0.00571140      -0.00654884      -0.00042569
H       18.77410000      18.98830000      15.81220000      -0.00402878       0.00700875      -0.00404995
H       19.53710000      21.09480000      13.94970000      -0.00400286      -0.00260748       0.00741232
O       19.32700000      14.58070000       3.27633000      -0.01014540       0.00017588      -0.00015713
H       17.52850000      15.09530000       3.09487000       0.00408609       0.00516334       0.00058066
H       19.88680000      15.54000000       4.70529000       0.00267756       0.00161264      -0.00146883
O       14.96350000      22.70780000       4.34313000       0.05669080       0.06432660       0.02973110
H       14.77860000      21.47050000       5.76574000       0.00283728       0.01111490      -0.01220200
H       16.19390000      24.50430000       4.89413000      -0.04914560      -0.06651570      -0.00334279
O       16.59590000      10.71200000      16.47870000      -0.00545098       0.00024175       0.00591850
H       14.83960000      10.34870000      16.18920000       0.00390059      -0.00253313      -0.00179858
H       17.53320000       9.42843000      15.61220000       0.00074087       0.00156834      -0.00786214
O        4.94140000      11.14430000      11.80010000      -0.00273916      -0.00477052       0.00375105
H        5.62559000      12.53490000      10.81750000      -0.00120149      -0.00361084      -0.00179723
H        6.39454000      10.05510000      11.75560000      -0.00487046      -0.00408621       0.00516084
O        9.26180000      13.71950000       1.60538000      -0.04029670       0.01668370       0.00652839
H       10.03260000      14.57180000       2.98600000       0.01894450      -0.00194166       0.00182127
H       10.41590000      12.83260000       0.60743600       0.02143850      -0.01554830      -0.00477149
O       15.98270000      24.03730000      10.20510000      -0.00866540      -0.00799290      -0.00929181
H       16.56750000      22.31770000      10.02320000       0.00132865       0.00350084       0.00864310
H       15.25100000      24.16600700      11.87590000       0.00962900       0.00043534      -0.00236064
O       18.67860000      17.40490000      19.67060000       0.00868062       0.00346837      -0.01013400
H       20.19720000      16.57030000      19.05040000      -0.00258466       0.00472531       0.00288316
H       19.04650000      19.16780000      19.97310000       0.00334076      -0.00873209       0.00157834
O       22.79140000      13.52980000      17.53430000      -0.00642927       0.01367060      -0.00246265
H       23.02120000      12.75060000      19.18110000       0.00034253      -0.00781476       0.00026616
H       24.48846500      13.84310000      16.97140000       0.00435065       0.00220389      -0.00129746
O       11.90920000      14.81690000      19.27580000       0.01032330       0.00909591       0.00090639
H       11.75500000      14.43880000      21.04260000      -0.00205031      -0.00522505       0.00012245
H       13.69980000      15.21900000      19.22320000      -0.00753622      -0.00470357      -0.00257295
O        3.39219000       8.61112000      19.79900000       0.00649564       0.00744930       0.00120110
H        3.54148000       6.81395000      19.41460000      -0.00159004       0.00169452       0.00237385
H        4.65745000       9.03489000      21.05140000      -0.00881501      -0.00928098      -0.00459077
O       23.40840000       4.91552000      14.21260000       0.03673140       0.04164930      -0.06393520
H       24.11000000       6.21888000      12.42090000      -0.01755650      -0.07206820       0.08712520
H        0.17001000       4.09026000      15.20870000      -0.01384730       0.02282300      -0.02306360
O       18.69050000       7.39663000      20.57520000      -0.00804115       0.00411108      -0.01046710
H       17.67090000       6.97976000      22.02890000       0.00024167       0.00430742       0.00347863
H       17.52890000       8.12687000      19.32660000       0.01176730      -0.00162364       0.01501570
O        2.24478000       4.73031000       9.07319000      -0.00613169      -0.00475845       0.00026185
H        0.77944300       4.94257000       8.02350000      -0.00003344       0.00481341      -0.00191045
H        3.66330000       4.95262000       7.95251000       0.00248599       0.00297847      -0.00401443
O       14.36920000      11.58540000       9.67656000       0.00270814      -0.00137434      -0.00137074
H       14.74810000      13.35970000       9.51864000       0.00133749      -0.00145250      -0.00126966
H       15.34790000      11.02270000      11.09230000      -0.00046855      -0.00012837       0.00071477
O       16.59920000      23.74060000      22.12370000       0.00269471      -0.00344446      -0.00708823
H       17.59700000      22.50390000      23.03650000       0.00078640       0.00138246       0.00033986
H       15.15840000      22.89920000      21.40700000       0.00344937      -0.00607886       0.00019826
O       15.64200000       6.93859000       0.95063600       0.00434016       0.00542070      -0.02365790
H       15.82060000       7.22208000       2.75035000      -0.00066660       0.00419168       0.00478038
H       14.43890000       5.60825000       0.81226700      -0.00398009      -0.00785388       0.00218180
O       13.58230000       6.57467000      13.45110000      -0.00265143      -0.00819228      -0.00682416
H       13.12820000       5.03090000      12.54900000      -0.00014422       0.00806982       0.00469419
H       11.96920000       7.17739000      14.01790000      -0.00076547       0.00402343       0.00562464
O        2.15520000      19.27310000      18.16780000       0.01653210      -0.02120920       0.00232276
H        2.61576000      17.91800000      16.99380000      -0.00501193       0.01836720       0.01410920
H        0.85320200      20.20500000      17.36580000      -0.00956263       0.00731835      -0.01172100
O       17.65470000       3.42222000      14.12950000       0.00060125      -0.00448481      -0.01159320
H       16.44530000       4.77114000      14.22860000       0.00216810       0.00372536       0.00594795
H       19.27080000       4.02048000      14.67550000       0.00103350       0.00114765       0.00429734
O        6.94827000      21.19850000       8.20852000      -0.00119833       0.00394146       0.00073584
H        6.57139000      22.36660000       6.87224000       0.00262664       0.00098205       0.00174967
H        8.49332000      21.79120000       8.94572000      -0.00175426      -0.00924969       0.00042740
O       21.79650000      21.64710000       8.98686000       0.00132640      -0.00545454      -0.00048696
H       23.61420000      21.73360000       8.78515000      -0.00006729       0.00532601       0.00947341
H       21.55280000      19.85990000       9.34429000      -0.00322704       0.00232093      -0.00871821
O        8.14253000      23.94710000       3.71111000      -0.00124580       0.00482961      -0.00325081
H        9.79367000      23.38720000       3.25520000       0.00157434      -0.00823743       0.00099799
H        7.01038000      22.90280000       2.73110000      -0.00300024       0.00333193      -0.00450844
O       10.88010000       2.63384000      11.06370000       0.00395294      -0.00634240      -0.00794984
H       11.31440000       3.09773000       9.32436000      -0.00835931      -0.00063057       0.00459889
H       11.13240000       0.83304300      11.18370000       0.00181838       0.00664176       0.00196958
O       14.58390000      17.09880000       2.59015000       0.00800740       0.00896568      -0.00215008
H       16.40140000      22.07020000       3.38745000      -0.00478815      -0.02426080      -0.01734800
H       13.92690000      17.38960000       0.90830800       0.00435433      -0.00065402       0.01041610
O       24.04800000      11.23380000       8.91668000      -0.00811835      -0.00004171       0.01086530
H       23.49870000      11.32300000      10.67110000       0.00114046      -0.00384020      -0.00677624
H        0.64338700       9.90409000       8.94648000       0.00391522       0.00394576      -0.00147135
O        2.52282000      18.59090000      24.55150000      -0.05541740      -0.06565920       0.02831770
H        2.58636000      17.89060000      22.87560000       0.00388327       0.00570300      -0.00498077
H        1.18872000      17.32750000       0.75674800       0.04556020       0.04352650      -0.02538950
O       10.87500000       4.08165000       5.88413000       0.00247173      -0.01995650       0.00297412
H       12.53380000       3.42139000       5.45072000      -0.01263610       0.01199970      -0.00382392
H        9.63640000       2.86747000       5.25307000       0.00897233       0.00924291       0.00082222
O        3.18251000      23.27360000       0.40440600       0.00686602       0.00684697      -0.00152515
H        2.23323000      21.71570000       0.07850600       0.00964481       0.00035160       0.00377657
H        2.10221000      24.36140000       1.34808000      -0.00782813       0.00567889      -0.00327094
O        6.18679000       4.34538000      12.83690000      -0.01410490       0.01128670       0.02957570
H        4.53163000       4.56309000      12.11090000       0.01192300      -0.00523354      -0.01016900
H        7.44892000       3.64525000      11.77460000       0.00281309      -0.00487466      -0.01674440
