192
TotEnergy=-1102.76135000 cutoff=-1.00000000 nneightol=1.20000000 pbc="T T T" Lattice="23.43260000       0.00000000       0.00000000      -0.00000100      23.43260000       0.00000000      -0.00000100      -0.00000100      23.43260000" Properties=species:S:1:pos:R:3:force:R:3:Z:I:1
O               9.20219000      6.98827000      2.90687000      0.00247336     -0.03617850     -0.00961736       8
H               8.77385000      5.44556000      1.92771000      0.00851861      0.02053770      0.01756320       1
H               8.72212000      6.54661000      4.64028000      0.01133130      0.00482503     -0.01210650       1
O               4.10543000     22.84650000      1.32117000     -0.00930236      0.01790550     -0.01393850       8
H               3.61180000      0.77513400      0.05624700      0.01258490     -0.04330740      0.02594980       1
H               4.54548000     21.22060000      0.56465700     -0.00362257      0.02737590     -0.00972981       1
O              15.58210000     18.20310000     19.47540000     -0.01219400     -0.04407640     -0.01863050       8
H              14.01460000     18.57760000     20.21060000     -0.01789400      0.02329000      0.02254590       1
H              15.21210000     16.41090000     19.08380000      0.01533380      0.02572780      0.00289146       1
O              15.78440000      4.98295000      0.66749800      0.04817530     -0.01106910     -0.01489590       8
H              14.17750000      4.90698000     -0.07240300     -0.00713470     -0.00685596      0.00661127       1
H              16.91570000      3.88518000     22.86180000     -0.03357920      0.00923767      0.01402930       1
O              21.19710000     10.37530000     19.12320000     -0.03543490     -0.02149020     -0.03220910       8
H              20.28700000     11.28450000     17.75160000      0.00307073     -0.01797480      0.02179350       1
H              22.09220000     11.76200000     19.73200000      0.02920640      0.02027520      0.02228450       1
O               0.80076700     14.20330000     20.21240000     -0.07649030     -0.00732055     -0.06139700       8
H               1.12036000     14.90770000     18.56850000      0.01533010      0.00276623      0.00771623       1
H               1.94104000     14.37300000     21.43470000      0.06417330      0.01322350      0.04993580       1
O               2.18699000     15.27030000     14.94190000     -0.01041150     -0.03155160      0.01938980       8
H               2.61903000     16.98790000     14.73270000      0.01203600      0.00710750     -0.00559386       1
H               3.48578000     14.22930000     15.80850000     -0.00019396      0.02254200     -0.00756852       1
O               6.56543000      8.72718000     13.12630000     -0.01021030      0.01711660     -0.03154240       8
H               5.52082000      7.75366000     14.17210000     -0.01267500     -0.01847000      0.01742170       1
H               5.59911000      8.65937000     11.53340000      0.01889580      0.00340530      0.01361790       1
O               5.04814000      9.07873000      1.78145000     -0.13071300      0.11360700      0.03494060       8
H               6.08972000     12.58830000      1.33780000     -0.03182860     -0.01192920     -0.02487560       1
H               6.45805000      8.36156000      1.43354000      0.12595500     -0.06485850     -0.02167370       1
O               8.35870000     14.64200000      6.17712000      0.03194720      0.02887940     -0.00307237       8
H               7.69158000     13.20910000      6.97889000     -0.02092500     -0.04513910      0.01976890       1
H               7.60813000     14.70400000      4.56944000     -0.00078526      0.00852448     -0.01645400       1
O               7.60812000      2.72980000     19.80870000      0.02710540      0.18870100      0.06403620       8
H               7.65281000      1.16894000     19.50880000      0.01259170     -0.18934600     -0.03118340       1
H               6.46806000      3.37842000     18.61660000     -0.01033060      0.01401150     -0.02391460       1
O              16.17410000      2.85978000     12.47740000     -0.02092690     -0.00295775      0.02893520       8
H              14.69550000      2.77907000     13.71480000      0.03963320      0.00190806     -0.03228870       1
H              17.73150000      2.47884000     13.38490000     -0.01867530      0.00361417      0.00079530       1
O              22.08310000     23.16130000     18.04170000      0.04487570     -0.06804080      0.01848410       8
H              22.12600000      1.01675000     19.23900000     -0.00840450      0.03524310      0.02927490       1
H              22.54650000     21.63510000     19.12390000     -0.02353160      0.03109010     -0.02969990       1
O              18.86660000     13.52890000     16.07370000      0.00582617      0.02181770      0.00127436       8
H              19.27770000     12.56070000     14.64630000     -0.00734519     -0.02570860     -0.02748020       1
H              20.33830000     14.59540000     15.93490000     -0.00757499      0.01464920      0.01210760       1
O              13.92290000     21.71890000      0.31301200     -0.00975962     -0.00227317      0.00485151       8
H              12.89520000     23.25100000      0.43521300      0.00943078     -0.01591170      0.00772995       1
H              14.52060000     21.24350000      1.97829000     -0.00277252      0.01047290     -0.00739891       1
O               0.50749000     20.82730000      6.47412000     -0.00486060     -0.01927510     -0.00587756       8
H              22.95770000     19.64350000      7.64562000      0.00055408      0.02919440      0.00286062       1
H               0.61249400     19.78880000      5.02477000      0.01123220     -0.02632960     -0.01406800       1
O               5.79149000     10.26600000      7.36304000     -0.04377220      0.03128770      0.00281940       8
H               5.86920000     10.02980000      5.51164000     -0.01073270     -0.01092850      0.00613017       1
H               3.91290000     10.83980000      7.69883000      0.05209880     -0.02201290     -0.01928880       1
O              16.22710000     17.72300000      9.59025000      0.02877230      0.03930450      0.05112310       8
H              14.95370000     17.22040000     10.75210000      0.00098853      0.00790416      0.01844900       1
H              15.69200000     16.88090000      8.21777000     -0.02475970     -0.04703400     -0.07360660       1
O               2.93695000      6.67969000     20.53400000     -0.06659280      0.04184110      0.11538600       8
H               3.80155000      7.49972000     22.08180000     -0.01147840     -0.01780510     -0.04388940       1
H               3.92102000      6.17522000     19.29530000      0.07001510     -0.02114050     -0.06565590       1
O              16.67750000      1.41383000     20.08870000     -0.02122060      0.01251610      0.01759220       8
H              12.69830000      4.31526000     20.79650000      0.13677300     -0.10821400      0.06342610       1
H              16.05740000     23.53350000     21.24230000      0.01216820      0.01452500     -0.01525510       1
O               3.57422000     22.04940000     15.39380000      0.07143930     -0.00910470      0.00435625       8
H               3.19996000     20.75210000     14.26830000     -0.00097635     -0.02310680     -0.03216700       1
H               2.09559000     22.76890000     15.80190000     -0.07897160      0.03607440      0.02176820       1
O              11.92240000      5.57046000     20.09110000     -0.10542800      0.10135200     -0.03133520       8
H              10.44760000      4.32668000     20.36880000     -0.05252420      0.02138800     -0.02628070       1
H              11.64020000      7.11322000     21.24970000      0.00110489     -0.02210580     -0.02176910       1
O              15.71940000     20.23430000     14.40460000      0.01276310      0.00644407      0.03379860       8
H              17.28220000     21.28500000     14.17170000     -0.03106400     -0.02002060      0.01031110       1
H              15.54000000     19.83800000     16.28290000      0.01278250      0.01391820     -0.04296180       1
O               8.44423000      1.75562000      9.29892000     -0.02864780     -0.04677860      0.02528110       8
H               9.13374000      3.18613000      8.58044000      0.01568910      0.04267130     -0.01309400       1
H               6.72160000      2.15208000      9.79859000      0.01006940     -0.00243372     -0.01052810       1
O               6.27407000     12.68440000     16.82560000     -0.18202800     -0.19316500      0.05444180       8
H               6.04746000     11.48540000     15.38680000      0.01258210      0.01212370      0.01570010       1
H               7.28802000     13.74080000     16.37190000      0.17660600      0.18306500     -0.07861880       1
O              11.61180000      4.23871000     14.56450000      0.12750900     -0.02128990     -0.04338410       8
H              10.01630000      4.50441000     14.61750000     -0.15878300      0.01634450     -0.01364940       1
H              12.02090000      4.48869000     16.20960000      0.02665560      0.00420348      0.05792290       1
O              19.76120000      9.28689000      5.60399000     -0.01559570     -0.15242700      0.31521600       8
H              19.80610000      7.56177000      5.39000000     -0.00242552     -0.05136330     -0.01374380       1
H              19.83300000     10.18180000      4.44455000      0.01140560      0.20568700     -0.29947100       1
O               7.58946000     21.09340000      6.03886000     -0.10730900     -0.16593400     -0.26309700       8
H               6.19315000     22.04060000      5.28579000      0.00880547     -0.00340163      0.01173220       1
H               8.05609000     21.88840000      7.21979000      0.09547670      0.17451800      0.24693900       1
O               1.01220000      6.23926000     14.05180000     -0.03109010     -0.01799020     -0.00175023       8
H              23.05180000      5.38685000     15.04660000      0.02265380      0.02095820      0.00211955       1
H               0.34605700      5.59656000     12.41840000      0.01431690     -0.00318202      0.00225547       1
O              13.22080000     13.55730000     17.61820000     -0.08276130     -0.02619030      0.01088660       8
H              14.67010000     13.89530000     16.74520000      0.04661470     -0.00122421     -0.04119960       1
H              11.96260000     12.64310000     16.45250000      0.04294320      0.02616930      0.02258150       1
O               6.35616000     21.58350000     19.86840000     -0.01325170      0.00948170      0.01262250       8
H               4.85948000     22.17500000     19.01880000      0.00258492     -0.00664454     -0.00371063       1
H               6.65668000     19.96990000     19.17830000      0.00943770     -0.01608150     -0.00603178       1
O              22.91620000     11.53750000     12.84430000     -0.01005980     -0.07026090     -0.02398340       8
H               0.24918400      9.75000000     13.08310000     -0.01833370      0.04634350      0.00589541       1
H               0.57196000     12.80980000     13.41720000      0.02417820      0.01924130      0.01462800       1
O              10.44890000     21.74720000     12.62680000     -0.03160890      0.02166980     -0.04330640       8
H              10.21070000     23.03440000     11.22560000     -0.02030990     -0.01862620      0.02425530       1
H              12.09880000     22.23870000     12.92050000      0.04974800     -0.00556802      0.02479980       1
O               0.83834800     15.98370000      3.78780000     -0.01862970      0.01794810     -0.00552510       8
H              22.51020000     16.40820000      3.24871000      0.02672870     -0.01574890     -0.00318415       1
H               0.63683900     14.62610000      4.97681000     -0.00015615     -0.00622976      0.00790804       1
O              19.17290000      4.36116000      6.47039000     -0.00553659      0.04073280      0.04734370       8
H              20.43650000      4.12034000      7.80852000     -0.00502505     -0.00035014     -0.00033556       1
H              19.77390000      3.38640000      5.18875000      0.01965810     -0.03514910     -0.04576080       1
O               9.84620000      1.57365000      1.34492000      0.00075139      0.00787521      0.03353110       8
H               8.31072000      0.91849800      0.56856000      0.00487349      0.00119969      0.01869540       1
H               9.79116000      1.53346000      3.26717000     -0.00912281     -0.00613295     -0.05075250       1
O              13.15330000     10.99460000     22.25350000     -0.03992980     -0.03438080      0.04291880       8
H              14.43130000      9.78217000     22.49960000      0.02314190     -0.00573762      0.00692364       1
H              13.77120000     12.15040000     21.13500000      0.01866700      0.03358920     -0.05058100       1
O              21.34400000     18.04960000     10.43340000     -0.04008580      0.10028300     -0.01902780       8
H              19.58950000     17.73430000      9.95956000     -0.01542550      0.02083290      0.00744954       1
H              21.78840000     16.46180000     10.37450000      0.05649990     -0.11533100      0.00546261       1
O               9.19236000     17.76530000     17.15170000     -0.00421596      0.00671692     -0.00873023       8
H               8.93140000     19.24470000     16.08770000      0.00702819     -0.00887820      0.00066973       1
H              10.87880000     17.20270000     16.76370000     -0.00207391      0.00074522      0.00231022       1
O              13.51570000     14.29650000      6.82877000     -0.09619240     -0.01919340     -0.01230370       8
H              13.27060000     12.53640000      7.49303000      0.02027540      0.03038420     -0.01411750       1
H              10.96360000     14.61430000      6.21393000      0.07111640     -0.00945023      0.01810030       1
O               0.56955800     11.60090000      7.35815000      0.00188898      0.02197330      0.04016400       8
H               0.14772400     11.83210000      9.16841000      0.02132220      0.00760506     -0.00144181       1
H              22.37310000     10.89100000      7.10825000     -0.02061950     -0.02604760     -0.03170400       1
O              14.24980000      3.02800000      7.86166000     -0.00511290     -0.02988730      0.07007720       8
H              15.27240000      3.26248000      9.56932000     -0.02010560     -0.00542965     -0.04715720       1
H              14.71790000      4.11043000      6.58435000      0.02865630      0.02621260     -0.02607440       1
O              13.75740000     15.83690000      1.16055000      0.00073422      0.00417598      0.04191840       8
H              14.01000000     16.03860000      3.05140000     -0.00445314     -0.00680881     -0.04044900       1
H              13.64480000     14.02920000      0.98389400     -0.00006050     -0.00395019      0.00115135       1
O              15.33860000      8.64369000     14.61340000      0.04212060     -0.00568844      0.02097590       8
H              16.10120000      7.43349000     15.82140000     -0.01480920      0.01479180     -0.02462460       1
H              13.60080000      8.34896000     14.70040000     -0.02618150     -0.00805331      0.00037677       1
O              20.53440000     22.90790000     13.79300000     -0.00516525     -0.01632240     -0.02970650       8
H              20.84480000     22.37610000     15.56300000     -0.00072009      0.02541870      0.00401026       1
H              21.28010000     21.56410000     12.82720000     -0.00339053     -0.00354705     -0.00515035       1
O               8.19765000     17.41270000     10.56710000     -0.03877280     -0.17009900      0.01887260       8
H               8.77493000     18.87740000     10.27190000      0.06476880      0.16554500     -0.01302280       1
H               8.48850000     16.61770000      8.96096000     -0.00810780     -0.00262791     -0.00164216       1
O              20.29040000     18.60730000     18.86600000      0.09186930     -0.00397767     -0.04699890       8
H              18.79080000     19.08990000     19.45980000     -0.08287560      0.02951230      0.02946210       1
H              20.71070000     17.15810000     19.74840000      0.01073280     -0.03166780      0.02177090       1
O              19.90780000      4.86616000     16.75750000     -0.00481083      0.01477200      0.00571967       8
H              19.48740000      6.68441000     16.89880000      0.01380480     -0.03297070      0.01385030       1
H              19.61590000      3.91395000     18.35390000     -0.00985050      0.01656770     -0.01712960       1
O              10.31380000      6.15753000      7.89783000     -0.09597380      0.07457370      0.01009820       8
H              10.41600000      7.81692000      8.75126000     -0.01503220     -0.02534930     -0.01488690       1
H              11.91770000      5.72804000      8.06312000      0.10361200     -0.04253760      0.00523057       1
O               5.89351000      3.30051000     15.13960000      0.00216280      0.14387500      0.02282020       8
H               5.46947000      1.75826000     14.79950000     -0.02307700     -0.14076900     -0.02842890       1
H               4.24916000      4.12179000     14.82650000      0.01224400      0.00208059      0.00041998       1
O               7.56569000      9.49131000     20.74750000      0.03294090     -0.06689500      0.12146700       8
H               7.46974000     10.45140000     19.41470000     -0.00986873      0.07924800     -0.09981730       1
H               8.04044000     10.54270000     22.22180000     -0.00725772     -0.02181060     -0.03077590       1
O               5.32658000     14.36280000      0.52946700      0.02276070     -0.02010090      0.03261620       8
H               4.55420000     15.07820000      2.08547000     -0.00764545      0.00799565     -0.02067900       1
H               6.69351000     15.49640000     -0.10576700     -0.00934988      0.00318541      0.01409330       1
O              14.74030000      9.27207000      8.98139000      0.00949489     -0.02932710     -0.15942500       8
H              16.37100000      8.48566000      8.40925000     -0.03417060      0.01751590     -0.00513922       1
H              15.08030000      9.37536000     10.55220000      0.02554250      0.01396970      0.16707700       1
O              22.11200000      3.02882000     22.06570000      0.01157400      0.04741200     -0.01730560       8
H              -0.76082700      4.80221000     21.74330000      0.00025348     -0.03118050     -0.00145400       1
H              22.35310000      2.91127000      0.40221600     -0.00219482     -0.00891407      0.01569240       1
O               3.00094000      1.76407000      6.91196000     -0.02360940     -0.05018360     -0.01291290       8
H               3.08847000      2.91048000      5.53941000      0.00120753      0.01208810     -0.00974957       1
H               1.17744000     -0.59582800      5.29393000      0.02828520      0.04113590      0.07174260       1
O              20.12800000     14.86530000      0.89310000     -0.01836020     -0.00191798     -0.00662483       8
H              18.58090000     14.63950000     -0.09092600      0.01131420      0.00945299      0.01170740       1
H              20.48670000     13.13880000      1.30363000      0.00245243     -0.00346991     -0.00322595       1
O               8.90532000     18.38820000      0.87751200      0.03455300     -0.02949330     -0.00560594       8
H               9.59937000     19.80690000      1.87042000     -0.00796329     -0.01983180     -0.01223670       1
H              10.45170000     17.29120000      0.39113600     -0.02670800      0.03810730      0.01902660       1
O              16.43930000     22.06020000      5.76278000     -0.01453850      0.01033290     -0.00514792       8
H              16.62970000     21.08040000      7.24684000      0.00623225     -0.01666840      0.01218010       1
H              15.19340000     23.27620000      6.40870000      0.01141810      0.00667664     -0.00843690       1
O              21.17200000      0.61400900      3.21575000     -0.12371300      0.17853600      0.01120100       8
H              22.03330000     22.75470000      3.13523000      0.12549700     -0.18103900     -0.02102480       1
H              19.59980000     23.45390000      3.88284000     -0.01528750     -0.00148327      0.00291801       1
O              22.62130000      3.28572000     10.39090000     -0.26985700      0.08611100      0.15345800       8
H              20.81740000      1.70987000     11.39960000      0.08706770      0.05031860     -0.02519790       1
H               0.31555900      2.52335000      9.66496000      0.18650500     -0.13893100     -0.12619200       1
O              18.48360000      9.70344000      0.22411100      0.06617160      0.08582770     -0.04796060       8
H              19.66120000      8.87443000     22.53490000     -0.00051138      0.01303090     -0.00766072       1
H              17.66860000      8.43490000      0.88855400     -0.06557780     -0.09820910      0.05659830       1
O               3.62523000     18.60640000     10.95800000     -0.06541140      0.00790564      0.03627920       8
H               5.17697000     17.76280000     10.88620000      0.03437450     -0.00077717     -0.01800230       1
H               3.14769000     19.74990000      9.67409000      0.01622000      0.00419218     -0.01428230       1
O               1.82386000      5.51668000      3.39571000     -0.00362124     -0.00981181     -0.01190250       8
H               0.61873200      5.78797000      4.68890000     -0.00330066      0.00491835      0.00913186       1
H               2.95316000      6.95578000      3.27556000      0.00290095      0.00937921     -0.00605683       1
O              10.81350000     12.41290000     12.94660000     -0.00737235      0.08232450     -0.06117490       8
H              10.62810000     14.38200000     11.98850000      0.00606956     -0.08701270      0.04529150       1
H              10.86980000     11.29100000     11.47560000     -0.00107753      0.01122210      0.01871600       1
