192
Lattice="25.3372 0.0 0.0 0.0 25.3372 0.0 0.0 0.0 25.3372" Properties=species:S:1:pos:R:3:force:R:3 TotEnergy=-1101.65254 cutoff=-1.0 nneightol=1.2 pbc="T T T"
O       21.50500000      21.19200000       4.27575000       0.10068800      -0.01137080      -0.02106790
H       22.70490000      19.93650000       3.36891000      -0.02778560       0.03714500       0.03405310
H       19.97940000      20.45030000       4.03804000      -0.06260740      -0.02885530      -0.00960241
O       15.79960000       2.96624000      18.69550000       0.03976370      -0.01080270      -0.00399084
H       16.87360000       2.17782000      17.34520000      -0.01574970       0.01004580       0.02852350
H       17.04250000       3.33333000      20.03980000      -0.01829950       0.00137497      -0.01709430
O       10.14060000      22.37190000      16.86910000       0.00369327       0.05546200       0.04237590
H        9.29621000      24.03290000      17.68910000       0.04660140      -0.06806080      -0.02627390
H       11.99350000      22.10290000      17.50250000      -0.05405490       0.01165650      -0.01565030
O       14.29720000      16.51320000      10.26440000      -0.20578300       0.03209120       0.07683990
H       15.47220000      15.55710000       9.94528000       0.17220000      -0.16918900      -0.04345960
H       15.01180000      17.95280000       9.98546000       0.03968430       0.13887400      -0.02311230
O       17.18880000      11.91470000       9.57612000      -0.06007960      -0.04259150      -0.02017930
H       15.44160000      10.65210000       9.79635000       0.08025060       0.06135430      -0.01866470
H       17.63980000      12.12530000       7.72693000      -0.02017910      -0.01856690       0.04224160
O        2.99780000      21.94080000      23.17680000      -0.00158900      -0.02694410      -0.00419237
H        2.64509000      20.41010000      22.21170000      -0.00249508       0.02141010      -0.00883205
H        3.86108000      21.01930000      24.48200000       0.01103090       0.01243020       0.01511890
O        5.00826000      11.87320000      10.47870000       0.01695650       0.04665350      -0.01314000
H        4.62650000      16.00840000      13.00940000       0.02887240      -0.06148830      -0.06864500
H        3.87205000      11.04480000      11.52550000      -0.01762020      -0.02189590       0.02216470
O       10.70160000       2.94885000       1.27289000       0.12682400      -0.01708580      -0.04024640
H       11.51700000       1.82642000       2.48193000       0.01760800       0.00263781      -0.01038640
H        9.22740000       2.99593000       1.96441000      -0.13810400       0.01534700       0.05038100
O       22.57380000       5.82853000      16.27590000      -0.04747910       0.08765400       0.00434041
H       23.00070000       5.73832000      17.97830000       0.01714950      -0.01653640       0.02376660
H       22.92800000       4.56880000      15.21600000       0.02717740      -0.07421300      -0.02916730
O        4.61757000      25.30166200       3.88579000      -0.06186430       0.09027810      -0.15155700
H        5.05411000      24.42480000       5.13241000       0.06038290      -0.09339790       0.16202800
H        3.92781000      23.96690000       2.88905000       0.00065538      -0.00212923      -0.01540940
O       22.64910000      18.32920000      11.63930000       0.06908300       0.07888740       0.02947950
H       22.21060000      16.78090000      11.06590000      -0.01336030      -0.06695530      -0.02154080
H       24.56860000      18.48050000      11.55780000      -0.05707880      -0.00927329      -0.00767606
O        3.24391000       4.84213000      11.61850000       0.01491290       0.13731000       0.04972590
H        4.34340000       4.87119000      13.09280000      -0.01599980       0.00976637      -0.01430640
H        3.24360000       3.29850000      11.13460000      -0.00476814      -0.14640300      -0.04461240
O       16.18480000      24.38860000      23.74030000       0.08163040       0.05383790       0.00893515
H       14.72910000       0.10688400      23.37100000      -0.00536229      -0.01128820       0.00355285
H       18.19600000       0.91483500      23.78470000      -0.04920840      -0.03722780       0.01227820
O       11.64890000       0.67370800      21.99690000      -0.00973962       0.01339370       0.04227050
H       12.30120000       1.61064000      20.67670000       0.01677880       0.01333750      -0.03864550
H       11.59930000       2.00323000      23.34100000      -0.01630170      -0.02478460      -0.00293270
O       21.96440000       6.39082000       5.24537000      -0.00945726      -0.01586470       0.06944350
H       22.15960000       4.56407000       5.45881000       0.00024130       0.01215920      -0.01317820
H       21.65300000       6.78169000       7.15311000       0.01356490       0.00025724      -0.05889980
O        8.48660000       8.93944000      18.82190000      -0.00967952       0.01243630       0.02433120
H        8.74147000      10.73490000      18.29970000       0.01023620      -0.04535570      -0.01107120
H        9.29263000       7.41733000      18.15860000       0.00549764       0.02959300      -0.00848722
O       18.80170000      24.66770000       6.62593000      -0.17631400       0.14529000       0.05190880
H       18.30640000      24.85440000       8.47440000       0.00467295      -0.00363721      -0.04913060
H       20.02610000      23.69640000       6.70412000       0.16933500      -0.13998000       0.00350958
O       13.35570000       1.46902000      12.37180000       0.02412920       0.07589010       0.13589900
H       15.23010000       1.38356000      14.65620000      -0.06642280      -0.00379166      -0.09148560
H       12.36080000       3.08864000      13.48050000       0.03759260      -0.06857430      -0.04539090
O       23.12430000       1.06149000       2.90589000       0.17517700       0.10409200      -0.16418700
H       22.61250000      25.30460000       3.92248000      -0.06866700      -0.14922200       0.12717000
H        0.08979700       0.03694100       2.20906000      -0.10672300       0.04623720       0.03511290
O        6.12812000      15.67760000      19.84240000      -0.00203934       0.02235660      -0.00786127
H        4.74043000      16.87250000      19.94990000       0.00072390       0.00377341      -0.01656170
H        5.69502000      14.85360000      21.35180000       0.00830640      -0.02858490       0.02602730
O        9.66270000      13.97230000      15.65930000       0.19391300      -0.04689200       0.00611901
H       10.90550000      14.78880000      16.92630000      -0.03770510      -0.02537290      -0.04243300
H        8.22481000      14.58790000      15.97120000      -0.15979900       0.06692720       0.04063910
O        8.84474000      10.71480000       6.72098000       0.06556200       0.01272650      -0.05009750
H       10.52430000      11.56850000       6.10628000      -0.06173670      -0.02896460       0.02143890
H        8.67501000      11.32800000       8.38195000      -0.01417040       0.00895996       0.02196270
O        7.51873000       4.83723000       6.39385000       0.23964900       0.00271764      -0.25521700
H        7.86962000       6.58317000       6.33181000       0.01342510       0.02705660      -0.01029590
H        6.53114000       4.80533000       7.47965000      -0.25505000      -0.02125040       0.27080300
O        3.56643000       0.19330400      14.18970000       0.03446230       0.00923983       0.05193550
H        3.60915000       1.53647000      15.72470000       0.00748780      -0.05867440      -0.05431460
H        5.04850000      24.23090000      14.26560000      -0.04307860       0.04187450       0.00684751
O       13.25400000      15.15880000       2.00867000      -0.01823800      -0.03923150       0.03656810
H       13.02270000      13.38590000       1.54141000       0.00665570       0.00640111       0.00926785
H       13.89970000      15.85820000       0.60057900       0.01815510       0.03554560      -0.06688220
O        7.30863000      21.84860000      12.05710000      -0.13158400       0.03492520      -0.10205900
H        6.68039000      24.54140000      10.86800000       0.01817850      -0.09675990       0.03123720
H        8.48020000      22.59910000      12.91830000       0.11207300       0.05038260       0.08025600
O       24.70780000       9.98734000      19.11370000      -0.02403190      -0.03631600      -0.09103790
H       23.99930000      10.07360000      17.16280000       0.03624260       0.01830440       0.08946900
H       25.31800000      11.40130000      20.06280000      -0.01093640       0.01109870      -0.01574230
O       11.51370000       4.95147000      16.45900000       0.00954690       0.05006790      -0.01572920
H       12.65600000       4.13997000      17.64810000       0.00555941       0.01369040      -0.00818476
H       12.22410000       6.72908000      16.01380000      -0.01178090      -0.05604400       0.01484320
O       18.61090000      24.35210000      15.55700000       0.13872300       0.11113200       0.05407440
H       17.77650000      23.02650000      15.16740000      -0.09000880      -0.13067300      -0.03671880
H       20.34950000      23.65650000      16.09590000      -0.04608050       0.02462390      -0.01830750
O       23.74250000      11.49060000      23.47770000      -0.10035500       0.19916700      -0.13927800
H       21.69980000      11.37690000      22.86010000       0.09174940       0.00887263       0.02027040
H       23.68220000      10.20670000      24.34510000       0.00889601      -0.20062100       0.13996600
O       19.58080000      22.31880000      21.08350000       0.09036800      -0.01411270      -0.07526790
H       19.77170000      23.85120000      20.05500000      -0.01648780      -0.02189960       0.01738090
H       18.17760000      22.39260000      22.02960000      -0.07396390       0.02415610       0.05098530
O       23.94390000       7.56709000      10.67330000      -0.04506900      -0.01923540       0.06954790
H       23.10490000       7.08418000      12.40630000       0.01555880       0.02789360      -0.05914650
H        0.18800300       6.86798000      11.15780000       0.02966200      -0.00357723      -0.01122450
O       17.72040000       9.13484000      16.24700000      -0.01445890      -0.00277846       0.00107314
H       18.45780000      10.82830000      16.49810000       0.02183080      -0.04215680      -0.01012060
H       18.74890000       7.63497000      15.74330000       0.00164043       0.04611860       0.01302810
O        8.82815000      22.48140000       6.95270000       0.10432100       0.17204100      -0.00628149
H        9.10387000      23.44240000       5.26888000       0.00052135      -0.02832220       0.05090400
H        7.90459000      21.28240000       6.44020000      -0.10246300      -0.14144700      -0.04740560
O       18.78170000      17.21380000       2.08879000      -0.13061400       0.01310420       0.07584080
H       17.02750000      16.56740000       1.59472000       0.05809760       0.01482430       0.01501660
H       19.92230000      16.86410000       0.94683000       0.07248050      -0.03140650      -0.08829520
O       12.82410000       3.78993000       6.81820000      -0.02402340       0.02068650      -0.00549772
H       13.31940000       2.60127000       7.99524000       0.03297370      -0.03334060       0.02515190
H       11.12930000       3.95981000       7.49681000      -0.00390091       0.01351280      -0.01983460
O        1.19475000      17.69560000       3.09997000      -0.03563290      -0.02463360      -0.03222030
H        2.09154000      16.32710000       3.95724000      -0.01103630       0.00010197      -0.01141150
H       24.09237000      15.34790000       0.91584700       0.03762720       0.02726610       0.02510250
O       11.55800000      10.02100000      11.85510000       0.02875320       0.13294900       0.06541270
H       10.07470000      10.94420000      12.55620000       0.02330830      -0.01330280      -0.01281520
H       11.05760000       8.57402000      11.30200000      -0.04911520      -0.12143500      -0.05018650
O       18.58520000       8.29901000      22.22710000      -0.08166670       0.02388510       0.05306550
H       18.13600000       9.21253000      20.69640000      -0.00054131      -0.01101100       0.00431178
H       16.27250000       8.80353000      23.77510000       0.07331830      -0.00880538      -0.05119530
O       21.72520000      12.52330000      12.55430000       0.03544660       0.06585250       0.11907700
H       20.19190000      12.17750000      12.03240000      -0.11665600      -0.02432840      -0.03265180
H       22.61140000      12.01970000      11.26460000       0.08136560      -0.04341260      -0.09310770
O       20.61500000      14.05890000      17.64460000      -0.09320820      -0.00351544       0.00747921
H       19.81380000      14.62950000      15.97610000       0.02183560      -0.00992775       0.04232700
H       17.70060000      13.38030000      19.20590000       0.07161520       0.02450640      -0.04068560
O       14.95900000      20.63740000      17.10100000       0.09742360      -0.06747880       0.07686510
H       15.39310000      18.78590000      16.73360000      -0.01905160       0.05267560       0.00772839
H       16.71220000      20.35710000      19.10530000      -0.06533730       0.02775210      -0.07522680
O        7.88894000      20.48270000       1.18840000       0.00325352      -0.00376584       0.00522917
H        9.58779000      20.38740000       0.46492300      -0.01580500      -0.00501179       0.00663192
H        7.60917000      18.91530000       2.08940000       0.00138955       0.00812053      -0.00403201
O       14.23970000      22.22620000      10.25710000       0.01202660      -0.02038880      -0.08028200
H       13.73250000      22.89430000      11.70900000      -0.01505530       0.02929020       0.09916510
H       13.01560000      23.20180000       9.31178000       0.00705623      -0.01578620      -0.02049960
O       20.33160000       2.77239000      24.40130000       0.00335853      -0.01907530       0.00284014
H       21.44620000       2.15302000       0.40756100      -0.00531557      -0.02863000       0.00729505
H       20.90730000       4.46363000      24.58790000      -0.01829550       0.02751910      -0.01888070
O       15.00160000      14.94120000      16.09730000       0.01171260      -0.06708960       0.06448240
H       15.85910000      13.36840000      15.54180000      -0.02341810       0.04380360      -0.02034980
H       14.77330000      16.44260000      15.25390000       0.00092755       0.01042850      -0.05814290
O        5.42802000      17.39470000       6.40558000       0.25667700       0.06910410      -0.12834600
H        7.25788000      16.82850000       7.04931000      -0.07444320       0.01067300      -0.01713680
H        4.25914000      16.93310000       7.30480000      -0.16969500      -0.08116840       0.14762000
O       24.20460000      21.10700000      16.25230000      -0.06423310      -0.06909710       0.14813300
H       23.29740000      20.26870000      15.12070000      -0.05139570      -0.04884660      -0.07010510
H       25.24315600      22.09400000      15.56110000       0.11602500       0.11939200      -0.08247680
O        2.60503000      12.70380000       4.70993000      -0.22440600      -0.03858770       0.06895980
H        2.51556000      12.29480000       6.52094000       0.01146120       0.00196637      -0.01524680
H        4.10451000      12.89910000       4.33892000       0.22303300       0.02869450      -0.04855630
O        8.77913000       8.81844000      24.60790000       0.01132340       0.02299010       0.04739650
H        8.99738000       8.44839000      22.91140000      -0.01279630      -0.01646100      -0.04201600
H        7.67389000       7.72893000       0.19640000       0.00079401      -0.01484790      -0.01118410
O       16.30640000       8.23394000       5.43973000      -0.00008759       0.02931120      -0.01134310
H       16.80250000       7.47339000       3.92498000       0.02548620       0.00613144      -0.03515450
H       15.90020000       6.67784000       6.10696000      -0.02510710      -0.03845340       0.04494030
O        0.85311300       7.56973000       1.57389000       0.04894930       0.07066650      -0.02299020
H        0.32200000       6.86221000       3.06791000      -0.02345120      -0.01637480       0.04645570
H        1.90350000       9.14364000       2.17898000      -0.03673730      -0.04837650      -0.01753480
O        7.05931000      13.57670000       0.40797300      -0.07953160      -0.01403280      -0.03346250
H        8.38687000      14.54450000       0.90995000       0.05166360       0.00618403       0.02554740
H        6.90539000      11.76370000       0.55180100       0.02960390       0.01704300       0.00459011
O       11.23080000      18.79530000      22.79870000      -0.06951210      -0.01961890      -0.03870220
H       11.49660000      20.57410000      22.34760000      -0.01005200      -0.01892430      -0.00360657
H        9.37485000      18.12730000      21.91240000       0.08484640       0.03704340       0.03614450
O        1.41992000      17.78790000      19.63590000       0.00936165      -0.04265980       0.11956300
H        0.78817900      18.81170000      18.43740000      -0.04127460       0.05480340      -0.04887070
H        0.45427200      18.06280000      21.37760000       0.02259310      -0.01643390      -0.06861420
O       22.17600000      16.81540000      22.99640000      -0.03612120       0.04007110      -0.09287600
H       21.55270000      16.38820000      21.03160000       0.02793310       0.00183634       0.07806030
H       21.84420000      18.70370000      22.85050000       0.00721836      -0.03691030       0.01243520
O       13.67130000      10.10050000       0.66168300      -0.02100850      -0.02926240      -0.01333100
H       11.85410000       9.82807000      25.32987500       0.03253310      -0.00514354       0.01662200
H       13.94690000       8.69314000       1.86024000      -0.01048880       0.02259950      -0.00777996
O        4.82551000       2.76567000      19.86330000       0.01144910      -0.07497990      -0.09804380
H        4.66545000       3.64927000      21.27100000      -0.01106310       0.05749760       0.09365370
H        5.39052000       1.09542000      20.36640000      -0.00228523       0.01319910       0.00168024
O       11.30000000      15.91160000       6.20667000      -0.05596280       0.04549420      -0.02304170
H       12.74160000      14.98270000       6.37641000       0.04458050      -0.02307450       0.01217250
H       11.63170000      16.89890000       4.66779000      -0.00454916      -0.01616480       0.02171850
O        4.31984000       4.38947000      25.01589300      -0.00176247       0.10983300      -0.04958350
H        2.67781000       5.08210000       0.18762100       0.01216950       0.02591490      -0.00725561
H        4.06141000       2.91792000       0.34140000       0.00228329      -0.13208200       0.05517830
O        3.64337000      17.58000000      12.58130000       0.15817000       0.05488760      -0.05982380
H        5.36728000      18.36910000      13.40980000      -0.04890240       0.02492150      -0.02837450
H        2.86649000      16.88810000      13.83100000      -0.12792400      -0.03106260       0.14147600
O       24.13610000       1.01698000      19.19170000       0.05084400       0.02920100      -0.02902470
H       23.24120000      25.26705100      20.20620000      -0.01246950      -0.02969260       0.03245200
H        0.62996500       0.84804800      19.59030000      -0.03324660       0.00253730      -0.00214350
O        4.16035000       8.42869000      15.28200000       0.07996900      -0.06725610      -0.03084720
H        5.67600000       7.45120000      16.10170000      -0.05946320       0.04871960      -0.01340220
H        3.21713000       9.27732000      16.44360000      -0.02447530       0.02023510       0.05262850
O       14.47820000      23.96900000       3.03694000      -0.03232710      -0.01776610      -0.15600000
H       15.49430000      23.99240000       4.32704000       0.07967710       0.00252837       0.10184300
H       16.10270000      23.56190000       1.01771000      -0.06691730       0.03063250       0.04555170
