192
Lattice="24.27516 0.0 0.0 0.0 24.27516 0.0 0.0 0.0 24.27516" Properties=species:S:1:pos:R:3:force:R:3 TotEnergy=-1103.36784 cutoff=-1.0 nneightol=1.2 pbc="T T T"
O       23.28810000      20.21197000      20.22552000      -0.15284800       0.09956430       0.04648030
H       21.53410000      19.85145000      19.45162000       0.04412660       0.02356770       0.02043960
H       24.15820000      19.00859000      19.60722000       0.10471200      -0.13049500      -0.06611390
O       22.52664000      19.90774000       1.22359000       0.04249040      -0.12322800      -0.06494000
H       21.94584000      21.42654000       1.69543000      -0.01361510       0.08655410       0.00219482
H       23.07424000      19.49364000      23.56774100      -0.02076290       0.04299390       0.06270130
O       11.05760000       2.15858000      14.17390000       0.03528340       0.07145890      -0.02539250
H       12.07270000       2.91853000      15.51010000      -0.00373777       0.00547220      -0.00134517
H       10.55280000       0.64725700      14.76160000      -0.03445300      -0.07687260       0.02579390
O       20.70766000      13.35396000      23.27891100      -0.00437248      -0.00356574       0.07600720
H       20.77374000      13.11476000      21.59342000       0.00961258      -0.02815960      -0.08212620
H       20.09769000      15.01484000      23.34504300      -0.00718966       0.02860200       0.00707056
O        5.51580000       7.00274000      17.98670000      -0.03728310      -0.06436200      -0.06688130
H        6.12372000       8.21294000      18.96280000       0.04783440       0.07053950       0.07148220
H        6.49731000       7.14084000      16.41630000       0.00346599      -0.00724480      -0.00070856
O       18.74655000      11.44670000       9.27908000      -0.00765160      -0.00538216       0.00323486
H       17.79681000       9.92378000      10.16800000       0.04047150       0.01859210      -0.03634920
H       20.09590000      11.36170000       7.88690000      -0.03893390      -0.01678120       0.02342890
O       20.88144000       0.55384000      13.06190000       0.04397670      -0.00137560      -0.07405980
H       22.61444000       1.33694000      12.66990000      -0.03306580      -0.00615167       0.03289920
H       20.67314000      24.16570000      11.24680000      -0.01473340       0.00553292       0.04225540
O        0.06754500      18.91042000      10.11590000      -0.03368860      -0.00303742      -0.07098710
H        0.45805100      17.98002000       8.37239000      -0.01302050       0.02785250       0.05471210
H       22.62836000      19.76522000       9.72738000       0.04860590      -0.02497350       0.00896402
O       10.78054000      14.30562000      19.95480000      -0.03649660       0.00689983       0.03180980
H       10.50644000      16.23332000      20.14040000      -0.00055977      -0.05790840       0.00934637
H        9.55144000      13.09492000      21.03830000       0.03253190       0.05300360      -0.03255100
O       10.10930000      19.71632000      21.87242000      -0.00402827      -0.00004684      -0.00261240
H       11.55830000      20.84572000      21.65962000      -0.00644613      -0.01981090       0.01528890
H        9.94554000      18.92012000      23.55592000       0.01291320       0.01841510      -0.01011720
O       15.80938000       3.87918000       7.30784000      -0.03587500      -0.06621190      -0.03306710
H       14.61405000       2.66310000       6.00879000       0.03651040       0.05196430       0.05276160
H       15.90104000       2.74908000       8.85151000      -0.00586787       0.00924891      -0.02676540
O       11.95626000       1.17254000       4.29968000      -0.05345810       0.03321040      -0.01293520
H       10.27386000       2.09244000       3.77918000       0.03481620      -0.02519000       0.03249370
H       12.53716000       1.03844000       2.60868000       0.02067570      -0.01031710      -0.01911510
O       16.01170000      18.91552000      10.41836000      -0.04418050      -0.04698520       0.02440880
H       15.47780000      17.37482000       9.20826000       0.01617570       0.02930930       0.03965350
H       15.22390000      18.41142000      12.24346000       0.02147820       0.02086700      -0.06216100
O        5.30504000      16.37190000      12.66064000      -0.09267890      -0.05025490      -0.03556930
H        4.00864000      14.76650000      12.46084000       0.03749600       0.06762440      -0.01365530
H        6.19894000      15.48820000      13.84544000       0.05148720      -0.01955390       0.04731240
O       22.42274000       1.28755000       1.51076000       0.01629200       0.02218780       0.00610194
H       22.32846000       2.04401000       3.27435000       0.00273976      -0.01170760      -0.03221000
H       24.06832000       1.71000000       0.68796600      -0.02860200      -0.01202750       0.01888920
O       20.36312000      22.25440000       7.94384000       0.00082257      -0.04152360       0.02022670
H       20.04162000      23.71120000       7.01794000       0.00074649       0.03509940      -0.02071820
H       18.99182000      21.10250000       7.62054000       0.00107478       0.00243512       0.00773407
O       15.77242000      11.23010000       0.53984000      -0.01530480      -0.02186210      -0.04473150
H       15.00192000       9.97940000      23.37190000       0.02915820       0.05408670       0.03386170
H       17.33652000      12.12810000      24.25820000      -0.01894320      -0.02112860      -0.00798703
O        5.88636000      14.46478000       3.21556000      -0.05160230      -0.05146900       0.00044884
H        6.45656000      13.51418000       4.78686000      -0.00498863       0.01811740      -0.01773420
H        4.48276000      13.12858000       2.65496000       0.05176650       0.04765860       0.00179326
O       19.48928000      20.77820000      16.21424000      -0.03587320      -0.05876980       0.04521940
H       19.92958000      21.94980000      15.05364000       0.02860810       0.06051240      -0.04829340
H       17.95718000      20.07620000      15.49794000       0.00234683      -0.00145055       0.00792423
O        6.66038000       2.76986000       3.05721000       0.15339900       0.02806570      -0.17776800
H        5.37018000       2.38316000       3.89082000      -0.15982400      -0.04419210       0.10693500
H        6.32478000       2.30396000       1.08260000       0.01632040       0.02042730       0.06986310
O        7.26694000      20.63930000      10.29836000       0.03625220       0.00416925      -0.03914740
H        8.68594000      20.51810000       8.94256000      -0.04070240      -0.00556262       0.04033010
H        6.60894000      18.96720000      10.66246000       0.00165010      -0.00288058      -0.00426906
O        8.85366000       6.76393000      13.87838000      -0.06472160      -0.10612300      -0.02172650
H       10.18056000       7.85310000      14.04648000       0.05715800       0.02988600       0.00566620
H        9.32766000       4.74636000      13.49418000      -0.00190288       0.07811510       0.02053490
O        7.81267000       2.82333000      22.31599000      -0.05913660       0.00252553       0.00303466
H        9.53408000       2.52226000      22.54238000       0.03158750       0.00189692      -0.01810750
H        7.07301000       3.47465000      20.74946000       0.02912140      -0.00539882       0.01336500
O       18.84184000       4.79100000      23.05760000       0.02749320      -0.05812200      -0.01132730
H       18.21124000       5.97932000      24.24110000       0.00383366       0.00933201       0.02808970
H       20.03584000       3.46373000      23.91200000      -0.03104790       0.04112450      -0.01429200
O       21.59818000      11.65068000       4.71584000       0.04113890       0.05619340       0.00476508
H       20.50831000      11.00168000       3.47754000      -0.01283570      -0.00734306      -0.01713290
H       22.36519000      13.35298000       4.08104000      -0.02229060      -0.04901010       0.02054410
O       10.59930000      12.82914000      10.63660000      -0.01153790      -0.03433540      -0.08055890
H        9.51411000      11.66904000       9.17823000       0.04296420       0.05358560       0.06015730
H       12.13930000      13.49964000       9.67234000      -0.03501780      -0.01088500       0.01027630
O        5.77036000      21.02940000      19.00380000       0.03704530       0.05376130      -0.00436787
H        4.56536000      19.72990000      19.01770000      -0.00514954      -0.03405360       0.01541250
H        7.22976000      21.12120000      20.19340000      -0.02926880      -0.02676460      -0.00808662
O        6.20764000       8.26934000       3.13488000      -0.00642996      -0.00082978      -0.00260191
H        6.79164000       6.53264000       2.86438000      -0.01793810       0.00734614       0.00874377
H        4.42724000       8.52424000       2.60838000       0.02588960      -0.01332980      -0.01221330
O       13.18980000       9.33554000      20.49800000       0.00074699       0.09102580       0.06139800
H       13.29610000      11.04414000      19.66610000      -0.00384444      -0.03792580       0.00174184
H       13.16240000       7.93104000      19.52190000       0.00720582      -0.04971290      -0.05736200
O        1.89156000      23.87352000      22.09340000      -0.04359850       0.01578110       0.00459235
H        0.95148900      22.62302000      21.13630000      -0.01526500       0.00807930       0.00673637
H        3.46417000      23.37412000      21.60270000       0.06543970      -0.01014600      -0.01167840
O        0.45418300      16.25030000       5.05126000       0.04265060       0.06827150      -0.08888420
H        2.26352000      16.08210000       4.36572000      -0.03008510      -0.01361370       0.02952310
H        0.18626100      17.78580000       3.61982000      -0.01501460      -0.05163020       0.05706310
O        1.36951000       3.22762000      13.71160000      -0.00280139       0.03326300       0.07156540
H        2.45511000       1.84087000      13.80570000       0.02158410      -0.03084910      -0.02057620
H        1.53833000       3.61283000      15.67650000      -0.02293130      -0.00320754      -0.05174250
O       13.73722000       4.67928000      18.14272000       0.00361734      -0.02685400       0.00727993
H       15.34652000       3.89098000      17.49602000      -0.02101590       0.01651400       0.00621685
H       13.16842000       3.72088000      19.63282000       0.01236440       0.00587020      -0.01305130
O        2.58170000       3.79048000       6.69776000      -0.03784290      -0.05395440       0.00732365
H        3.12391000       4.99348000       7.89296000       0.01061510       0.01525070       0.01649780
H        1.92475000       2.29148000       7.78666000       0.03157870       0.03596180      -0.02335940
O       14.75472000      15.95444000       2.80720000       0.21984000       0.06281060       0.09331110
H       14.60282000      14.47964000       2.11870000       0.03023950      -0.15216400      -0.05721190
H       13.26352000      16.18074000       2.42584000      -0.23802100       0.08656270      -0.03617760
O       20.27690000      12.93104000      13.88130000      -0.03291550      -0.03558340       0.13694100
H       20.98990000      14.46074000      14.11000000       0.03843830       0.07360200       0.01032710
H       20.26250000      12.64164000      12.28200000      -0.00884307      -0.03028480      -0.14537900
O        6.48606000      11.48796000       6.91641000      -0.00377359      -0.03566170      -0.02732250
H        5.78096000      10.20886000       5.57266000       0.03256140       0.01765210       0.03873440
H        5.13646000      11.88316000       8.02834000      -0.01448990       0.00486021       0.00983640
O        1.44712000       4.11804000      19.03160000      -0.02965860       0.15989300      -0.10927200
H        1.81462000       2.83273000      19.94920000       0.04528220      -0.11724600       0.09094580
H        2.76092000       5.49077000      18.68590000      -0.00990844      -0.03909440       0.01912690
O        2.18766000      12.08356000      10.44414000      -0.03956310       0.11576100      -0.02524300
H        2.74096000      10.55736000      10.79774000       0.03159150      -0.11377100       0.02498450
H        0.40786000      12.02256000      10.06874000       0.00870181      -0.00128489       0.00195617
O       14.82800000      14.66700000       7.93844000       0.05365610      -0.02718800      -0.03328000
H       16.25650000      13.32860000       8.58844000      -0.02776420       0.03756950      -0.02274800
H       15.27700000      15.00640000       6.01134000      -0.02157060      -0.01142720       0.05508540
O        2.65896000      23.93730000      10.00444000       0.03745460       0.00697041      -0.01732710
H        4.18556000      23.05974000       9.33754000      -0.01736210       0.01321860       0.01583340
H        1.48086000      22.61855000      10.03194000      -0.02018740      -0.02763810       0.00275890
O       16.47114000       7.22792000      11.13034000      -0.00198980       0.02430850       0.00077509
H       15.97304000       6.33350000       9.61504000       0.00098348      -0.00669964       0.00300541
H       17.27774000       6.17269000      12.38854000      -0.00282497      -0.01141600       0.00053019
O       14.64952000      13.95112000      16.36787000       0.05675180      -0.00141381      -0.06185350
H       16.38285000      14.33812000      15.46842000      -0.04982440      -0.01731590       0.03429660
H       14.00846000      12.64652000      15.06608000       0.01085000       0.01392250       0.03845230
O        4.16388000       7.30576000      10.92486000       0.04399070       0.02426130       0.01323660
H        5.84778000       7.72466000      11.76786000      -0.02752250      -0.01356820      -0.02206880
H        3.39778000       6.30646000      12.19486000      -0.01454920      -0.01685610       0.01004920
O       15.56750000       0.17834700      10.90970000      -0.05624330      -0.03608130       0.05023210
H       14.33390000       0.34869400      12.42100000       0.03300330       0.01571960      -0.04066090
H       15.03710000      22.66048000      10.58020000       0.02558070       0.02123260      -0.00767277
O       15.34592000      21.56358000      20.79964000      -0.01661090       0.01884980       0.02456390
H       15.24042000      21.48543000      19.03414000       0.00802515      -0.01640720      -0.02346530
H       16.38372000      20.28712000      21.65354000      -0.00171532      -0.00283295      -0.01078490
O        8.40629000      12.83876000      15.55926000       0.03519830       0.03109800       0.00506431
H        9.62425000      13.73906000      16.70407000      -0.02773770      -0.02083870       0.01153150
H        9.42707000      13.23786000      14.09446000      -0.01616210      -0.01277700      -0.01591580
O       22.98360000      17.19620000      14.86900000       0.00738682      -0.03004170       0.01244090
H       21.94200000      18.45180000      15.66610000       0.00572699       0.01412190      -0.01599130
H       24.16960000      17.68970000      13.57800000      -0.01329800       0.01625280      -0.00423111
O        9.10602000      21.50990000      14.96753000       0.03942180       0.00512366       0.08082500
H        7.87205000      20.93630000      16.19871000      -0.00335655       0.00807513       0.00740424
H        8.38534000      21.13180000      13.47076000      -0.03106740      -0.01380530      -0.08174860
O       21.16870000       2.70338000       6.22184000      -0.01945590       0.00533605      -0.00179453
H       22.64640000       3.44558000       7.00294000      -0.01214380       0.01014960      -0.00219662
H       19.56140000       3.68958000       6.34194000       0.02893060      -0.00617543       0.00479879
O       17.74750000       7.67747000       2.96871000      -0.04273990      -0.05485930       0.04567550
H       16.85353000       9.10802000       2.21107000      -0.00722374       0.00452933       0.00239096
H       16.39116000       6.66635000       4.05378000       0.05214400       0.04098900      -0.03730910
O       13.79440000      18.81242000      15.44960000      -0.07625330       0.06138660      -0.00914892
H       11.71840000      19.31682000      15.50770000       0.07984270      -0.00968425      -0.00825754
H       13.89390000      17.13982000      16.02700000      -0.00134010      -0.04055160       0.01404980
O        2.48435000      16.78420000      18.76244000       0.00259532       0.01145780      -0.01289690
H        2.92077000      15.39310000      19.87024000      -0.00132624      -0.00396981      -0.02236230
H        2.33867000      16.38000000      16.93684000       0.00195949      -0.00693215       0.03587000
O       18.07874000      18.22134000      23.25369000       0.02511880       0.02565480      -0.08277980
H       19.42264000      19.08844000      24.02046000       0.03354980       0.02081010       0.00828797
H       17.41744000      17.51144000       0.34231200      -0.06054770      -0.04743620       0.07958560
O       21.64320000      11.20330000      18.56672000       0.04431890      -0.11658000       0.18256600
H       21.73190000       9.17688000      18.78322000      -0.02414360       0.06657420      -0.03328710
H       21.42900000      11.91720000      17.13422000      -0.02567010       0.04405020      -0.15177900
O       10.12766000      17.75324000       2.76703000       0.10299800       0.07679680      -0.05381120
H        8.87416000      16.78674000       3.13176000      -0.11950100      -0.09126990       0.02650750
H       10.42526000      18.77704000       4.20918000       0.00791201       0.00958404       0.01371430
O       11.51750000      20.36172000       6.82584000      -0.11011200      -0.05218370      -0.04630780
H       12.81700000      19.98322000       7.75174000       0.10558000      -0.02908350       0.07527930
H       11.51070000      21.99242000       6.39704000       0.00643898       0.09037910      -0.02459170
O        2.71312000      10.50484000       0.50569700      -0.05085210       0.00307036       0.00670745
H        1.09318000      10.47724000       1.64676000       0.04207180       0.00385052      -0.05705000
H        2.51767000      10.67904000      22.75609000      -0.00416453       0.00020886       0.05487630
O       12.97216000      10.01816000      13.98910000       0.02381120      -0.02783410       0.01868080
H       14.26566000       8.88666000      13.23060000      -0.01781400       0.01895410      -0.00233870
H       12.18116000      11.10146000      12.77920000      -0.00931428      -0.00252936      -0.02930930
O       17.59338000       4.04728000      15.07380000      -0.03111170      -0.07960900      -0.07280090
H       18.87393000       4.72018000      15.99440000       0.05995640       0.02787060       0.03917280
H       18.44684000       2.45980000      14.13520000      -0.01838860       0.04809660       0.02912980
O        2.61604000      11.45406000      19.80412000       0.00877550      -0.03172040      -0.02067010
H        0.86224000      11.15976000      19.26629000      -0.00010510       0.01062590       0.00085389
H        3.60634000      10.27356000      18.69481000      -0.01824400       0.02580320       0.02108250
O       20.87710000       6.01599000      18.40184000       0.00089153       0.00930688       0.04085560
H       19.66190000       5.75401000      19.88574000       0.03274750       0.00198454      -0.01991400
H       22.62420000       5.77661000      19.07804000      -0.02537540      -0.01657760      -0.00947675
O       13.80620000       1.59384000      22.89214000       0.06057120       0.00789266      -0.02688810
H       15.49010000       2.71994000      22.89574000      -0.05328620      -0.03896750       0.00106152
H       14.33770000      24.25270000      21.83644000      -0.00513640       0.03558650       0.03364810
O        8.11046000      10.01070000      22.19760000       0.09208890      -0.02522730      -0.02271360
H       10.10716000       9.29541000      22.20580000      -0.07622980       0.03090790      -0.01080420
H        7.62476000       9.70634000      23.87990000      -0.01461310      -0.00058861       0.02685090
