192
Lattice="22.89685 0.0 0.0 0.0 22.89685 0.0 0.0 0.0 22.89685" Properties=species:S:1:pos:R:3:force:R:3 TotEnergy=-1103.01981 cutoff=-1.0 nneightol=1.2 pbc="T T T"
O        4.87660000       4.61264000      17.80900000      -0.24137600      -0.03984680      -0.07621920
H        6.32765000       4.90926000      18.22090000       0.24881100       0.06072360       0.07745980
H        5.08411000       2.93802000      17.23270000      -0.00622539      -0.02127540      -0.00516283
O       16.19060000       4.65207000       0.93732500       0.03853730       0.01024510      -0.04860900
H       17.07470000       5.52672000      22.31160000      -0.02296070      -0.02562640       0.03784860
H       14.97980000       5.84885000       1.48705000      -0.00817343       0.01221440       0.00286576
O       14.33600000      13.73310000       0.66897900      -0.01890740       0.02495320      -0.01641390
H       12.85860000      14.75230000       0.01232900       0.04320320      -0.01933960       0.01504770
H       15.87790000      14.82160000       0.71392200      -0.02205780      -0.01050560      -0.00628839
O       12.93610000      18.99940000       0.50199400      -0.04441620      -0.18602800       0.09788590
H       13.30510000      20.42870000      22.84193000       0.04763520       0.18854400      -0.07344420
H       12.67610000      19.20830000       2.36952000       0.00577032      -0.00572403      -0.01800190
O        2.30856000      18.91710000       3.66145000       0.02845330       0.02423580      -0.01823930
H        3.10461000      17.23480000       3.41976000       0.00018367       0.03545100      -0.00345955
H        3.30755000      20.42910000       2.80908000      -0.02872900      -0.06800860       0.01913480
O       10.86890000      16.98140000      10.13670000      -0.08874920       0.04694270       0.03471640
H       12.22400000      15.92840000      10.41220000       0.05449700      -0.03848660       0.01294890
H       10.09930000      17.26740000      11.99310000       0.02283630      -0.00072727      -0.05882560
O       10.59370000       9.15475000       6.17229000       0.05108390       0.02937320       0.01145810
H       12.34850000       9.84236000       6.68330000      -0.05044790      -0.02439020      -0.01821830
H        9.48638000      10.55760000       6.76266000       0.00750097       0.00006808      -0.01030260
O       17.42410000      18.97920000       7.39587000      -0.05219600      -0.03912660      -0.00470953
H       17.08430000      19.22390000       9.15221000      -0.00233528      -0.00274285       0.02850090
H       18.57610000      20.16070000       6.90541000       0.05085490       0.04410300      -0.02910770
O       16.46080000      10.79340000       4.32319000       0.01565860      -0.01906750       0.03565020
H       16.70110000      11.69740000       6.04005000      -0.00942290       0.00337661      -0.05220460
H       15.31530000      11.32820000       3.02333000      -0.00610060       0.01893150       0.01682910
O        1.59966000      15.79440000      20.38320000      -0.14372000      -0.08955230       0.01749170
H        2.12045000      17.25710000      19.94600000       0.05185740       0.14572600      -0.04257760
H        2.93954000      14.94490000      20.85570000       0.09203490      -0.06419780       0.02770810
O       12.40580000       5.52131000      15.43120000      -0.07161980      -0.02162630      -0.05703350
H       11.25300000       5.02665000      16.71560000      -0.01512610      -0.00329880       0.02285440
H       13.85040000       5.82626000      16.22860000       0.08460400       0.02242660       0.04122890
O       22.34060000      22.06540000      22.69046100       0.00560704      -0.09312100      -0.04370750
H        0.05728100      20.86250000      21.25260000      -0.01894550       0.02386740       0.05062340
H        0.00792300       0.57695200      21.88270000       0.01450260       0.06865960      -0.01283100
O        0.50749000       0.76224600      14.54870000       0.03701460      -0.00105900       0.03827690
H        0.61683500       1.12618000      16.42060000       0.00296019      -0.01074780      -0.04296610
H        2.10388000      22.44460000      14.12490000      -0.04415030       0.01825800       0.01338570
O       19.64490000       3.78316000       4.44708000       0.03660320      -0.06021920      -0.14339000
H       18.46280000       3.89635000       2.80043000       0.01357250       0.00831354       0.05451540
H       19.07620000       4.54541000       5.79714000      -0.05884550       0.06078790       0.09280690
O        8.47346000       6.93385000       9.86461000      -0.04428510      -0.03143760      -0.03135160
H        8.74345000       7.35290000       8.02793000       0.00666707      -0.00324452       0.02774130
H        6.83694000       5.91563000       9.81854000       0.04442940       0.02486690       0.01121180
O       16.80440000       6.78765000       7.54838000       0.02125490      -0.01785950       0.03524920
H       16.46400000       7.78201000       6.17385000      -0.00060392       0.04150080      -0.04752790
H       15.17710000       6.09291000       7.91560000      -0.01172050      -0.01889100       0.01222550
O        3.34798000      19.90770000      13.63450000       0.07961590       0.01728870       0.01331370
H        2.78389000      19.90440000      11.91790000      -0.00777892      -0.00763864      -0.02784340
H        5.31839000      20.28050000      13.51020000      -0.06629900      -0.00932781      -0.00152022
O       11.30470000      10.09750000      13.11420000      -0.01731420      -0.06759480      -0.04564290
H       11.34690000       8.81277000      14.52580000       0.00641841       0.02157240      -0.03204180
H       10.80430000       8.83508000      11.45530000       0.01137790       0.05502750       0.07675130
O       20.93760000      21.92260000       4.58544000       0.00078506      -0.01997170      -0.00828966
H       20.39240000       0.79721900       4.74202000      -0.00813644      -0.00832241      -0.02295430
H       21.23310000      21.32450000       2.77662000      -0.00173636       0.03028650       0.04099790
O       16.75870000       0.43570600      19.17000000      -0.01296030       0.00044461       0.02464130
H       17.69510000       0.84663500      17.70540000      -0.00074585       0.00416590      -0.03029850
H       16.96110000      21.54540000      19.33050000       0.00402764      -0.00565217       0.00398080
O        8.45340000       8.36815000      22.76497500      -0.19947000      -0.05248900       0.00715777
H        9.96388000       8.81826000       0.03565700       0.19155300       0.06096300       0.02285650
H        7.64326000       8.30995000       1.56457000       0.01013580      -0.00060297      -0.01845100
O       12.52070000      19.86140000       5.59705000       0.05281820      -0.02685500       0.07640910
H       11.57600000      18.87820000       6.92079000      -0.00242910       0.01811860      -0.02303080
H       14.31360000      19.77960000       6.73860000      -0.04471880       0.00262547      -0.05666820
O        2.73486000      20.39600000      18.67730000      -0.06079980      -0.01411320       0.00574638
H        2.31751000      19.96650000      16.95120000       0.00486288      -0.00109855       0.00107934
H        4.35273000      21.07010000      18.60290000       0.04698680       0.01241260      -0.00670008
O        7.66601000       0.29646500      11.48040000      -0.02719970       0.04989340       0.01757550
H        7.27614000      22.45990000       9.76010000       0.00070138       0.01292540       0.01216920
H        6.71568000       2.02576000      11.70460000       0.02820370      -0.06265340      -0.01433360
O        8.51350000      17.90480000      14.83550000       0.16753800       0.14891000       0.04603770
H        9.22901000      16.94720000      16.24870000       0.01512470       0.00010442       0.00527210
H        7.42877000      16.85630000      14.48670000      -0.18482600      -0.15714400      -0.06401910
O        0.09605700      13.94130000       8.04971000      -0.03871260       0.11867100       0.03378420
H        0.08287700      12.54460000       8.94199000       0.00808714      -0.09919550       0.05328950
H        0.67727700      13.86410000       6.48259000       0.03434400      -0.01610520      -0.08494170
O        1.45428000       4.02878000      21.75640000       0.01463910       0.03675750       0.01250860
H        2.76615000       4.98360000      20.92460000       0.00374014      -0.01752270      -0.02071610
H        1.40176000       5.23596000       0.36181900      -0.01261990      -0.03337190       0.00087311
O       18.81590000      11.84400000      20.30660000       0.01747320      -0.05141290       0.05473870
H       19.98810000      13.01260000      19.68110000       0.01586430       0.01617060      -0.00834083
H       19.82440000      10.85760000      21.82930000      -0.03204370       0.03874720      -0.05109200
O       18.62510000       6.00585000      12.38790000      -0.01384410      -0.02773870      -0.10168400
H       18.18370000       6.85947000      13.76590000      -0.02469180       0.04847750       0.08980710
H       17.25050000       6.61624000      11.16290000       0.04110660      -0.02030030       0.01761740
O        3.77933000       4.42305000      11.81450000       0.06252420       0.01674090      -0.13514500
H        3.31783000       4.40009000      13.36850000      -0.04460410      -0.00531270       0.14127900
H        2.41193000       3.93918000      10.79170000      -0.02024410      -0.01119390      -0.01124820
O       17.86540000      14.00520000       7.96847000      -0.12583400       0.01565450      -0.04218690
H       19.44200000      14.06360000       8.42081000       0.13808200      -0.01245110       0.03923620
H       17.68690000      15.80210000       7.48420000      -0.00899350      -0.01101430      -0.00341338
O        9.89856000      14.77410000      18.31190000       0.02643610      -0.00846352      -0.01934780
H        8.60774000      13.56040000      17.85790000      -0.00409175       0.01426030       0.01387460
H        9.49335000      16.02440000      19.58370000      -0.02253750      -0.00955571       0.00865899
O       18.85650000      17.95320000      19.58530000       0.07671090       0.03648670       0.03258780
H       20.44430000      17.72230000      18.68120000      -0.00629893       0.00412806       0.01337740
H       17.79070000      17.29990000      18.44280000      -0.06892660      -0.04212420      -0.04986250
O        1.21038000       2.82765000       6.73874000       0.01622170       0.08558770       0.10836900
H        0.39016800       1.72265000       5.85646000      -0.08006670      -0.09354680      -0.07461090
H        2.74969000       2.77651000       6.02306000       0.07514010       0.00387280      -0.02614800
O        8.59153000      17.97570000      21.80780000       0.10685200      -0.07385490      -0.03963960
H       10.42200000      18.58290000      22.26390000      -0.02709430      -0.00987382       0.00393923
H        7.55117000      19.08840000      22.43640000      -0.08369520       0.08463240       0.04540570
O        7.28069000      21.91790000      17.70110000       0.02103450       0.07918780       0.14903400
H        8.57701000      21.41880000      19.18320000      -0.05207980       0.03080750      -0.04386640
H        7.83140000      20.75950000      16.68520000       0.03599900      -0.09584910      -0.10391000
O        8.03131000      13.16870000       7.48943000       0.06410420       0.03513320       0.07825060
H        7.06224000      13.94070000       6.28291000      -0.03172890       0.02574730      -0.03917560
H        9.06971000      14.73580000       8.47967000      -0.03491670      -0.04939620      -0.03011960
O        6.91829000       2.86519000       4.63398000       0.08787680      -0.32004200       0.02299980
H        8.65073000       2.65754000       4.18817000       0.02077370       0.00797004      -0.00138856
H        6.44542000       4.26815000       4.50131000      -0.09884120       0.32327800      -0.03119080
O       12.30030000       1.82736000       4.30686000      -0.00034453      -0.00834998       0.01543740
H       12.73780000       2.95738000       5.76931000      -0.00717964      -0.02538420      -0.01530070
H       12.50280000      22.85976100       4.80067000      -0.00658503       0.04016170       0.00173844
O       16.30380000       9.41069000      16.28600000      -0.06173020       0.03475190      -0.14313700
H       17.25130000       9.46914000      17.66390000       0.06652310       0.02518680       0.08027620
H       16.52220000      11.05000000      15.07660000      -0.00217704      -0.06167950       0.06528380
O       15.58410000      15.16740000      16.53310000      -0.06734370      -0.12446500       0.13386500
H       13.58780000      14.66430000      16.44370000       0.07295590      -0.00024873       0.03195260
H       15.25750000      16.10620000      15.29860000      -0.00339331       0.12723800      -0.16590100
O        5.16077000       8.06368000       4.35037000      -0.02088050      -0.02744510      -0.04949690
H        3.35277000       7.50950000       3.80618000       0.03463070       0.00761193       0.00062570
H        4.67370000       8.77449000       5.87694000      -0.00064526       0.02409840       0.04824800
O        9.62064000       4.56940000      19.72590000       0.01468970       0.00087631       0.05167920
H        9.52009000       5.88741000      21.21170000      -0.00418096      -0.03355430      -0.04432900
H       10.37690000       2.99214000      20.57260000      -0.01633090       0.02777660      -0.02037400
O        6.40757000      12.62340000      14.27150000       0.03071730      -0.03955720       0.04082690
H        6.46447000      11.25850000      15.84930000       0.00569379       0.06276720      -0.07085340
H        8.14678000      12.77880000      13.49560000      -0.03451670      -0.02282580       0.02105910
O       19.85690000       5.47244000      19.75900000      -0.00276333      -0.07305410      -0.04239310
H       19.68900000       3.63053000      18.82990000       0.00296257       0.07949020       0.04237840
H       21.51470000       5.27462000      20.56440000      -0.00604865      -0.00354909      -0.00183805
O        5.42730000      11.44810000      19.35730000      -0.20984200       0.10562700      -0.22204700
H        6.43852000      11.02480000      20.37420000       0.20978100      -0.10819100       0.21769200
H        4.41917000      10.14520000      18.61110000      -0.00358406      -0.00280778       0.01071390
O        0.11468600      14.05250000       2.84219000      -0.10310900      -0.05627410       0.19246100
H        0.80113200      14.47000000       1.51072000       0.11254900       0.05604620      -0.19864600
H       21.46690000      14.99840000       2.71159000      -0.01134420       0.01629020       0.01011230
O        5.41894000      22.03990000       0.50622500      -0.03466520      -0.05198340      -0.08323760
H        5.67758000       0.36265200       1.62980000       0.01932920       0.07493310       0.06228800
H        4.33728000      22.80899600      22.06780000       0.01740510      -0.01269530       0.02766540
O        6.71741000      21.46980000       7.17438000       0.26084800       0.02375800       0.00972906
H        7.33278000      22.69190000       5.90649000      -0.00655221      -0.01638390       0.02530220
H        5.20623000      21.39030000       6.90160000      -0.25553300      -0.02480450      -0.03675270
O        3.79299000       9.70332000       9.15502000      -0.01011830      -0.04686020       0.02254640
H        3.77993000       8.05829000      10.23610000       0.00839971       0.06055240      -0.02871240
H        5.24492000      10.75480000       9.52913000      -0.00331319      -0.00964230       0.00872468
O       20.77630000      10.06120000       1.61957000       0.22645400       0.04422050      -0.08700860
H       19.39470000       9.89997000       2.26345000      -0.24940500      -0.04294270       0.10921100
H       21.30900000      11.64140000       2.58138000       0.01873720      -0.01970630      -0.02494520
O       16.46100000      19.45060000      12.19220000      -0.04026660      -0.07528370      -0.01231750
H       14.92790000      20.32440000      12.38000000      -0.02794810       0.01218640       0.00648699
H       17.55360000      20.72770000      12.28250000       0.06526370       0.07251170       0.01752900
O       21.32160000      11.03180000      12.10010000       0.06154840       0.01098670       0.02546190
H        0.17620500      10.87210000      12.97330000      -0.05319660       0.01315950      -0.02272840
H       20.83040000       9.32476000      12.19280000      -0.01289330      -0.02109600      -0.00540631
O       12.20240000       0.69568800      21.89730000       0.05919780       0.07603700      -0.00075951
H       12.33450000       1.76323000       0.63619400      -0.00145875      -0.03300930      -0.03041640
H       13.80750000       1.53358000      20.87760000      -0.05022410      -0.04102210       0.03330010
O       13.64590000       8.93362000      21.71150000       0.02161400       0.07938780      -0.00433470
H       13.69650000       8.91591000      19.85350000       0.00083026       0.00060184       0.02138720
H       14.29030000      11.04050000      22.12860000      -0.02323030      -0.07204970      -0.01445700
O       18.92630000      17.01550000       1.64290000       0.10055700      -0.22577100      -0.07547260
H       18.26000000      18.22160000       2.29246000      -0.12026600       0.21325400       0.12888600
H       19.47910000      17.60540000       0.09928400       0.01185850       0.00714679      -0.04930490
O        5.68687000      14.49150000       2.22611000       0.06411550      -0.03480870      -0.01085780
H        7.55645000      15.31530000       1.75963000      -0.07888830      -0.04499690       0.01183330
H        5.67355000      12.46670000       2.23974000       0.01259420       0.07703090      -0.00143872
O        0.88808900       6.53304000       2.88223000      -0.00055698      -0.01708670       0.01327410
H       22.65500000       5.56307000       3.98180000       0.00460359      -0.01004570      -0.00035286
H       22.56500000       7.68026000       2.20641000      -0.01171500       0.03216210      -0.00817586
O        1.32501000       9.28843000      16.26720000      -0.00214166       0.09285310       0.01004520
H        0.05980900       8.34927000      16.92900000      -0.07663630      -0.01577450       0.04117860
H        2.13429000       7.92024000      15.79530000       0.08257010      -0.08438820      -0.04584740
O        1.85137000      20.39670000       8.71550000      -0.03914120       0.06090870      -0.03113940
H        1.20425000      22.38280000       8.40704000       0.02435200      -0.09157260       0.00835428
H        1.23496000      19.32700000       7.21142000       0.01494940       0.03488670       0.03074670
O       13.02020000       4.29816000       9.05359000      -0.03842290      -0.04443370       0.07332290
H       13.09200000       2.67892000      10.45940000       0.00496032       0.04663360      -0.04329740
H       11.53130000       5.18633000       9.88498000       0.02404470      -0.01517330      -0.02667760
O       12.69840000       0.73169100      12.93060000      -0.00192270       0.02584530       0.00854045
H       10.91680000       0.43964700      12.55260000      -0.00518438      -0.00217092      -0.00105622
H       12.67880000       2.20002000      14.13650000       0.00411558      -0.02238750      -0.01795140
O       14.41260000      14.13390000      11.38100000      -0.01354290       0.01047900       0.01825370
H       15.71550000      13.67610000      10.26960000       0.03223580       0.00065093      -0.02263690
H       13.77840000      12.59800000      12.00910000      -0.01836180      -0.02409900       0.01274610
O       18.32990000       1.16762000      14.31930000       0.06182170       0.01980160      -0.01013180
H       20.25280000       0.66068200      14.52000000      -0.04939760       0.01489790      -0.01470440
H       18.48630000       2.87693000      13.39660000      -0.00632755      -0.03361590       0.01906470
