192
TotEnergy=-1103.07747000 cutoff=-1.00000000 nneightol=1.20000000 pbc="T T T" Lattice="24.16374000       0.00000000       0.00000000      -0.00000100      24.16374000       0.00000000      -0.00000100      -0.00000100      24.16374000" Properties=species:S:1:pos:R:3:force:R:3:Z:I:1
O              24.28170000     19.18770000     13.46220000     -0.04233090      0.02494480      0.00743786       8
H              23.72050000     20.37250000     14.87150000      0.02655350     -0.02138050     -0.02265930       1
H              22.71600000     19.17590000     12.42170000      0.01756100      0.00413523      0.00786488       1
O              17.53130000      7.79705000      6.62968000     -0.00037174     -0.01981440      0.02697620       8
H              17.96250000      8.84563000      8.09612000     -0.00145780     -0.02054520     -0.01368890       1
H              17.62180000      5.96995000      7.21474000      0.00383485      0.03801400     -0.01537530       1
O               4.17954000      3.11258000     16.89960000     -0.02871870     -0.01212210     -0.02191360       8
H               5.09058000      2.44231000     15.43700000      0.00800182      0.01354140      0.01704580       1
H               5.02849000      4.13467000     18.12390000      0.01779640     -0.00043246     -0.00297991       1
O              12.34350000     17.28220000     12.92740000     -0.01093650     -0.05936770     -0.02098990       8
H              13.63860000     15.90450000     13.06950000     -0.00899599      0.03092430      0.00927277       1
H              11.13440000     15.92090000     12.21210000      0.01207040      0.03363570      0.01686980       1
O              10.84910000      8.25378000     20.19160000     -0.05185030      0.00565411      0.02900350       8
H              11.15280000      8.47632000     22.04700000     -0.00607882      0.00198950     -0.02923720       1
H               8.90825000      8.18412000     20.28420000      0.04606620     -0.00674712     -0.00575777       1
O              23.50640000     17.89530000      4.34096000     -0.05055650     -0.01573340     -0.02231860       8
H              21.85340000     18.10560000      3.29841000      0.04961190     -0.00353054      0.02969890       1
H              23.33850000     16.13220000      4.96714000      0.00605966      0.03124580     -0.01174250       1
O               3.73747000     11.78710000      3.18749000      0.04848310     -0.03647260      0.03976880       8
H               5.23633000     10.43260000      3.83474000     -0.06710160      0.04314240     -0.02927670       1
H               3.39845000     12.71180000      4.77340000      0.00847224     -0.01297310     -0.02303630       1
O              18.90410000     20.89760000      1.76507000     -0.02564830      0.00490680     -0.04843600       8
H              20.24790000     21.94480000      0.95986400     -0.01510200     -0.00363236      0.01827530       1
H              17.41680000     21.21190000      0.54952200      0.03595180     -0.01010480      0.02490210       1
O              15.14040000     13.30970000     15.66940000      0.03032030     -0.05498340     -0.01395610       8
H              14.64120000     12.49430000     17.22810000     -0.00876214      0.01657270     -0.00116944       1
H              15.80260000     11.68300000     14.86860000     -0.02398070      0.03639450      0.01169750       1
O               0.32162400     23.00970000     17.18110000     -0.05266950      0.03628790     -0.08371010       8
H               1.19645000     22.44840000     18.50860000      0.05441710     -0.03223380      0.08030170       1
H               1.28179000     24.39360000     16.47790000      0.00068562     -0.00435991      0.00562906       1
O              23.69570000     22.67850000      6.99250000     -0.08542330      0.01611370      0.03120240       8
H              23.48750000     21.17720000      6.11142000      0.02045690     -0.04369360     -0.02969800       1
H              21.74600000     22.65090000      7.37948000      0.05534610      0.01551220     -0.00323416       1
O              23.77770000     10.18620000     17.56910000     -0.01846340     -0.01315500      0.00123527       8
H              22.05600000      9.84318000     18.30710000      0.02268330      0.02114710     -0.01611540       1
H              23.91050000     11.47430000     16.25550000     -0.01183690     -0.00573286      0.02305720       1
O              19.81330000     23.93240000     15.40700000      0.03434500     -0.01592000     -0.00996663       8
H              21.27010000     23.92900000     16.59430000     -0.01865600      0.00250339     -0.00863974       1
H              20.54440000     22.91670000     13.97270000     -0.02783920      0.01135770      0.02335180       1
O              11.05960000      0.80649700     17.61080000     -0.00259946     -0.02538170     -0.00540058       8
H              11.30330000     -1.04428000     17.19470000     -0.00523705      0.04018790      0.02072280       1
H               9.86572000      0.95670200     19.06800000      0.01254330     -0.00476867     -0.02275770       1
O               0.60131400      6.12844000     14.36870000     -0.01968790      0.01151980      0.00740678       8
H               1.70750000      5.20963000     15.57810000     -0.00975024      0.01353900     -0.00913511       1
H              -0.38062200      7.53544000     15.17730000      0.03291790     -0.02487310      0.00453468       1
O              15.36120000      3.08731000     15.68610000      0.02864860     -0.04767020     -0.00567148       8
H              16.60150000      1.53015000     15.80790000     -0.04137350      0.05093200     -0.00439991       1
H              13.63330000      2.49949000     16.05250000      0.01790160     -0.00579105      0.00887839       1
O               7.04497000      8.36063000      5.11974000      0.04935820      0.03951220      0.03723040       8
H               7.94834000      9.78146000      6.09823000     -0.02607860     -0.04571590     -0.02420280       1
H               7.76115000      6.78680000      5.83538000     -0.01564630      0.00442118     -0.00822818       1
O               6.16755000     19.99160000      6.05851000     -0.08383270      0.03356770      0.08501290       8
H               5.22722000     18.44300000      6.19954000      0.01330110     -0.01821120     -0.01117100       1
H               4.61463000     20.74560000      8.03044000      0.07504660     -0.01556690     -0.06891070       1
O              14.27090000     11.15110000      3.79100000      0.15404600      0.07039410      0.10975700       8
H              14.42340000     10.30080000      5.48447000      0.01157800      0.01300530     -0.03203560       1
H              12.97500000     10.41220000      3.28405000     -0.16969800     -0.09388180     -0.08166620       1
O              18.88640000      7.53165000     11.74520000      0.01880760     -0.02306380      0.02570230       8
H              19.62790000      7.88583000     13.40850000     -0.01533630     -0.00469190     -0.01539320       1
H              19.38570000      5.68643000     11.52280000     -0.00636039      0.03039720     -0.00191968       1
O               1.32251000     14.39070000     13.55930000      0.06719410      0.05919370      0.03003560       8
H               0.09906300     13.34150000     13.11980000     -0.07095260     -0.06710290     -0.03920630       1
H               0.55024800     16.03680000     13.34260000      0.00616354      0.00771867      0.00634082       1
O              17.49670000      3.12760000     23.55540000     -0.00187632     -0.08819490     -0.03376150       8
H              19.21380000      2.34923000     23.96280000     -0.04440700      0.02104820     -0.00639996       1
H              16.60080000      1.34879000     22.41200000      0.04412910      0.06455230      0.03604200       1
O              14.86050000     16.02730000      4.23401000     -0.02206240      0.01349740     -0.00611725       8
H              13.54510000     17.30340000      3.69116000      0.01745800     -0.02253510      0.01723840       1
H              13.97140000     14.39020000      4.37800000      0.01283700      0.01309270     -0.00893911       1
O               7.40045000      1.08647000     20.94860000     -0.06948840      0.02831600      0.02681640       8
H               6.52843000      2.54785000     21.89900000      0.02944590     -0.03657130     -0.02563230       1
H               5.82591000      0.15261300     20.31800000      0.03448900      0.01392430      0.01782000       1
O              16.07570000     22.57070000     21.73620000     -0.10800600      0.00427772     -0.03379410       8
H              15.49810000     21.41980000     20.24750000      0.02728680      0.03594050      0.03516640       1
H              14.02640000     23.30120000     21.95100000      0.06586380     -0.03142520      0.00346240       1
O              12.07710000      7.94969000      8.51566000      0.16136700      0.03894610     -0.10683800       8
H              10.86270000      7.63464000      9.52340000     -0.10891500     -0.04976960      0.10828800       1
H              13.73330000      7.09442000      8.97464000     -0.05226850      0.01823880     -0.00588676       1
O              18.18320000      8.04603000      0.38818800      0.04649720     -0.02556500     -0.00399145       8
H              17.44420000      6.35178000      0.18658700     -0.01282620      0.01719560     -0.00299248       1
H              17.37650000      9.60325000      0.39169100     -0.03569090      0.01002320      0.01292230       1
O               5.94775000     14.06420000      7.33051000      0.05011310      0.00273186      0.01224900       8
H               7.80345000     13.72480000      7.11406000     -0.03653390      0.01353130     -0.00579039       1
H               5.97424000     13.86410000      9.15508000     -0.01175790     -0.00768002     -0.00767392       1
O              12.12880000      0.95629200      7.74083000     -0.01758940     -0.00837933      0.05805050       8
H              11.62240000      1.97423000      9.37777000      0.01707090     -0.01926060     -0.04271220       1
H              12.19940000     -0.81276900      8.37676000      0.00403843      0.02715900     -0.01602240       1
O              15.52900000     16.96400000     20.46300000      0.06934950     -0.07989720      0.07379600       8
H              15.78480000     15.48290000     22.06310000     -0.02509090      0.07162480     -0.07197890       1
H              17.38860000     17.00280000     20.02470000     -0.04089110      0.00562826      0.00139545       1
O               3.53577000     21.62580000     20.89810000      0.05891080     -0.04449200     -0.00582279       8
H               5.24990000     20.80680000     19.97480000     -0.06781430      0.02587970      0.03810260       1
H               3.36835000     20.91670000     22.75960000      0.01648760      0.01702580     -0.04299320       1
O              12.86880000     20.17540000     17.60940000      0.03971670     -0.07765360     -0.00601141       8
H              13.74780000     18.69120000     18.74770000     -0.03784910      0.04648300     -0.03369810       1
H              12.95030000     19.29400000     15.90360000     -0.00327417      0.01801840      0.03182640       1
O              19.17640000     20.87050000     11.52640000     -0.06944520     -0.08034560      0.00767241       8
H              19.03870000     20.19040000      9.72663000      0.00495165      0.01760370      0.04376120       1
H              17.38680000     19.30550000     12.64780000      0.08082970      0.05535860     -0.05588920       1
O              21.50170000      3.04323000     11.71110000     -0.05320920     -0.04632620     -0.02146250       8
H              22.12790000      3.99342000     13.01850000      0.03936520      0.03211880      0.03792170       1
H              20.34710000      1.90328000     12.71190000      0.01819330      0.01346680     -0.01746630       1
O              21.91460000      4.37528000      2.82670000      0.00483117      0.00127902     -0.00389540       8
H              21.11800000      3.49668000      4.28612000     -0.00639393      0.02060680     -0.02474700       1
H              20.93080000      5.76049000      2.05745000      0.00472519     -0.02025990      0.02498890       1
O              18.94140000      2.45245000      6.74462000     -0.00332300     -0.03266700      0.03111250       8
H              20.26060000      2.27160000      8.03947000     -0.01216720      0.01068070     -0.00997433       1
H              18.02930000      0.75611400      7.01931000      0.01724980      0.03083290     -0.01907420       1
O               7.41908000      3.26028000      5.61287000     -0.03254740     -0.04736710      0.06000990       8
H               8.66861000      1.87839000      5.94400000     -0.01182740      0.02834330     -0.00803604       1
H               5.91494000      2.70398000      6.91201000      0.04622100      0.02064210     -0.05261890       1
O               5.02566000      6.81692000     20.85950000     -0.05384280     -0.00581461     -0.00647947       8
H               3.97227000      6.10267000     22.29630000      0.02677400      0.01978790     -0.02468140       1
H               3.74821000      7.61863000     19.67740000      0.02820760     -0.01156820      0.03175760       1
O              14.09910000     19.06140000      8.38247000     -0.00050852     -0.00326526      0.02622280       8
H              13.47950000     18.62560000     10.13870000      0.01263720      0.00039089     -0.02723460       1
H              14.75410000     17.52010000      7.60257000     -0.01398020      0.00808226      0.00321080       1
O              12.73600000      3.45578000      2.83182000      0.05920140     -0.05052420     -0.00075438       8
H              14.01980000      3.20484000      1.39500000     -0.01979890      0.01126790      0.04192740       1
H              13.56240000      2.49645000      4.32241000     -0.02481780      0.02945990     -0.03571860       1
O              10.70570000      4.22249000     11.63570000     -0.03939010     -0.01772960      0.05994720       8
H              11.08310000      4.13124000     13.47120000      0.02005200      0.00755675     -0.02652520       1
H               8.94812000      3.48996000     12.08400000      0.02157400      0.00457283     -0.03357070       1
O               2.48651000      7.05108000      9.47518000     -0.05343260      0.00526792      0.03212270       8
H               1.34420000      6.89344000     11.01260000      0.03704780     -0.01199720     -0.00964197       1
H               1.15148000      7.89982000      8.55074000      0.01686870      0.00263272     -0.01873540       1
O              17.24650000     15.79450000     11.91670000      0.02131680     -0.03008720      0.00930826       8
H              17.19520000     14.86460000     13.57730000      0.00282422      0.01509220     -0.02769510       1
H              18.39060000     14.84850000     10.74500000     -0.02141810      0.02391520      0.02318730       1
O              11.31270000     23.25740000     -0.26762400     -0.02753030      0.06994060      0.04850510       8
H               9.53662000     24.20280000     -0.24051100      0.05588890     -0.03658390     -0.01821390       1
H              12.18240000     24.47450000      1.03126000     -0.02526100     -0.03522720     -0.03087370       1
O              10.42930000     12.94480000     10.94360000      0.01161480     -0.05924260     -0.01706570       8
H               9.48219000     11.54790000     11.74590000     -0.00607564      0.03009770      0.00439799       1
H              11.57990000     11.75090000     10.01840000     -0.00769238      0.03065550      0.00843208       1
O              14.46480000      8.09556000     16.45910000     -0.01350840     -0.05670460     -0.00951474       8
H              15.08210000      6.37520000     15.31080000     -0.03167930      0.05732740      0.06560260       1
H              13.09330000      7.73582000     17.94310000      0.04768850      0.00092948     -0.05659240       1
O               3.09179000      1.57623000      7.98248000     -0.00900880      0.06188630      0.02492290       8
H               1.78500000      0.38260600      8.14990000     -0.01475950     -0.03769630     -0.01237280       1
H               2.07964000      3.01364000      8.72879000      0.03503350     -0.01375420     -0.01580100       1
O              19.60650000     14.58500000      6.92782000     -0.01624850      0.00246915     -0.05410940       8
H              20.55630000     13.75150000      5.51689000     -0.00595867      0.00833774      0.03238210       1
H              18.25240000     15.37910000      5.84100000      0.01220990     -0.01047370      0.02793910       1
O               4.01105000     12.75910000     22.04670000      0.04530860      0.02900330      0.05803350       8
H               2.98107000     12.19930000     23.53410000      0.02576910      0.01110430     -0.02303160       1
H               5.59895000     13.59030000     23.00590000     -0.06424980     -0.03692700     -0.03130650       1
O               7.21973000     19.72360000     17.27740000      0.00782137     -0.05006460     -0.01889000       8
H               8.92745000     19.21430000     16.62540000     -0.02743960      0.01597050      0.02286750       1
H               6.32507000     18.01350000     17.17350000      0.01597670      0.03150170      0.00023790       1
O              18.48530000      9.49720000     19.55950000      0.04078490      0.01363870      0.03271990       8
H              17.46290000      9.53741000     18.12670000     -0.03635490     -0.01306180     -0.01352250       1
H              17.65320000      9.13514000     21.17310000      0.00758691     -0.00708442     -0.02647660       1
O               3.28853000     20.73310000      1.53655000      0.02476700     -0.02686860      0.06087340       8
H               2.40607000     19.47340000      2.63565000     -0.00368219      0.01676350     -0.02639620       1
H               4.85130000     20.82360000      2.68166000     -0.02907750      0.00783714     -0.02968940       1
O               9.93442000     13.12960000     17.59240000      0.02806200     -0.07072820      0.01382520       8
H               9.99232000     11.20530000     18.08160000      0.00187445      0.06620630     -0.01408390       1
H               8.27643000     13.61130000     17.97860000     -0.02105710      0.00313081     -0.00196854       1
O               5.03414000     14.84280000     17.26670000     -0.02856610      0.03158210     -0.00302586       8
H               3.30356000     15.43430000     16.77430000      0.02985020     -0.02123330      0.00730488       1
H               5.06898000     14.97340000     19.08860000     -0.01294590     -0.00807357     -0.00186055       1
O               5.32226000     11.15120000     11.74310000      0.01517600     -0.04383140     -0.01017930       8
H               4.28727000      9.57694000     11.35690000      0.01082980      0.04734360      0.00505506       1
H               4.50284000     12.65180000     12.28480000     -0.02540890     -0.00760415      0.01104940       1
O              22.58870000     12.85470000      3.10920000     -0.06246150     -0.07185490     -0.03383510       8
H              23.75550000     11.80860000      2.15487000      0.01919750      0.01399960      0.01251500       1
H              21.10110000     11.54740000      2.76393000      0.03890630      0.04685690      0.01750780       1
O              22.38170000     23.94230000     -0.08831200      0.03985890      0.00729663     -0.01223250       8
H              23.24180000     25.58610000      0.19709000     -0.01704830     -0.02425470      0.00378232       1
H              23.73740000     22.77110000     -0.58676600     -0.01366840      0.01745880      0.00498629       1
O              10.46160000     18.94610000      3.73857000     -0.00800610      0.04038430     -0.01328540       8
H              10.68870000     20.33280000      2.45852000     -0.00616773     -0.02523640      0.02192490       1
H               9.26201000     19.67110000      5.02877000      0.02171390     -0.01645790     -0.02231130       1
O               5.41766000     20.59820000     11.50410000      0.00792445     -0.06837450      0.00226241       8
H               4.01088000     19.35960000     11.80180000      0.00767506      0.03423050      0.00499093       1
H               6.84693000     19.38240000     11.82210000     -0.02046580      0.02695030     -0.00972988       1
O               6.56928000      1.42293000     12.02120000      0.03704310     -0.10412800      0.00270009       8
H               7.10820000     -0.89337500     11.81380000     -0.02921470      0.09425470      0.03025130       1
H               6.17520000      1.27198000     10.28140000     -0.02196250      0.02035220     -0.01773400       1
O               3.80396000      4.52072000      1.80994000     -0.05220860     -0.04606470      0.03460840       8
H               2.09554000      3.76171000      2.31057000      0.02699330      0.03205530     -0.02493420       1
H               4.59075000      3.62824000      3.24276000      0.02104580      0.01743980     -0.01751480       1
O              22.01320000     11.79340000     10.48530000      0.03258860      0.13237100     -0.05885960       8
H              21.43200000     10.39570000     11.09520000     -0.05636860     -0.11890500      0.04196850       1
H              20.69380000     12.62140000      9.40682000      0.02561390     -0.01843030      0.01364280       1
O              18.11540000     21.61140000      6.47482000     -0.03161250     -0.03131680      0.02132900       8
H              17.99830000     20.96370000      4.70214000      0.00925931      0.01435660      0.01389980       1
H              16.71620000     20.69390000      7.49060000      0.01833760      0.02309260     -0.02534890       1
O              10.62290000      7.54918000      0.96067500     -0.02281110      0.03881270      0.00345448       8
H               9.97675000      7.24541000      2.66301000      0.01064030     -0.00928189     -0.01958390       1
H              11.90450000      6.48285000      0.37528700      0.01080940     -0.02466740      0.01918080       1
