192
TotEnergy=-1103.61593000 cutoff=-1.00000000 nneightol=1.20000000 pbc="T T T" Lattice="24.59389000       0.00000000       0.00000000      -0.00000100      24.59389000       0.00000000      -0.00000100      -0.00000100      24.59389000" Properties=species:S:1:pos:R:3:force:R:3:Z:I:1
O              23.45000000     -3.43832000    -30.63230000     -0.01520020      0.05343180      0.02650870       8
H              22.09540000     -2.40886000    -31.36710000      0.00916914     -0.02071300     -0.00376919       1
H              23.63250000     -4.98143000    -31.47360000     -0.00053603     -0.03534570     -0.02328240       1
O              47.46910000     46.50930000     -0.76961300     -0.02267150     -0.02257090     -0.05189670       8
H              48.79980000     47.63650000     -0.43777400      0.01853180      0.02990140      0.01005180       1
H              47.51520000     46.21040000     -2.65428000      0.00268264      0.00084099      0.02859750       1
O              12.81330000      2.36007000     15.18860000      0.00649674      0.08197480     -0.09170110       8
H              13.52600000      3.12899000     16.55390000      0.02497460      0.02923860      0.06282050       1
H              12.32660000      0.81649700     15.55020000     -0.03917310     -0.11053600      0.02821420       1
O              -6.42443000     -9.80566000     -1.84669000      0.00327113      0.06823110      0.03288470       8
H              -4.79456000    -10.44260000     -2.31831000      0.01148950     -0.00255161     -0.00526917       1
H              -6.10461000     -8.15013000     -0.77101000     -0.00874200     -0.04915050     -0.03001960       1
O               5.38048000     32.04310000     18.14630000      0.10478400     -0.01028620     -0.03511790       8
H               6.51754000     32.35630000     19.63200000     -0.03003590      0.00222648     -0.01472270       1
H               7.07027000     31.84370000     16.79720000     -0.07252570      0.00620450      0.04367650       1
O              -5.54309000      9.78446000      6.64323000     -0.03002010     -0.01061340     -0.01037590       8
H              -6.17641000      8.93327000      8.17049000      0.00799719      0.00505552     -0.01305360       1
H              -6.41583000      9.04768000      5.06841000      0.01751620     -0.00162322      0.02345600       1
O              45.93030000     28.42880000     14.05910000     -0.00864837     -0.01758930     -0.01636350       8
H              47.46370000     27.70320000     13.32690000     -0.00158928      0.00284153      0.01179680       1
H              44.55420000     27.22030000     13.61950000      0.01146390      0.01584260      0.00096609       1
O              -2.88169000    -32.49440000      7.18098000     -0.00092589      0.01028240     -0.03036830       8
H              -2.08708000    -31.52290000      5.75176000     -0.01088530     -0.01414510      0.02380150       1
H              -4.37772000    -33.33270000      6.32509000      0.02244380      0.01259990      0.01224420       1
O              31.76430000    -34.19320000     17.56220000      0.02727860      0.02302110      0.00123686       8
H              31.26210000    -34.19070000     15.77060000     -0.01397220     -0.01027510      0.01982310       1
H              31.21680000    -35.60560000     18.52640000     -0.00494894     -0.01014620     -0.00657502       1
O               9.19955000    -27.78430000    -25.07370000      0.07062350     -0.04251250      0.01454230       8
H              11.23600000    -28.03520000    -25.35720000     -0.06875670      0.01763030      0.00527504       1
H               8.77121000    -29.27390000    -23.92820000      0.00452971      0.02786600     -0.01246980       1
O             -10.08050000     -0.14792200      7.62467000     -0.05133640     -0.04954890      0.06155140       8
H             -10.36600000      1.08450000      6.39511000     -0.01455480      0.02712100     -0.02991960       1
H             -11.85310000     -0.67356200      8.49907000      0.06133310      0.02937930     -0.03246550       1
O             -10.87930000     28.13610000     52.49800000     -0.03422220     -0.00340861     -0.00924584       8
H             -12.99510000     28.46500000     52.76770000      0.06639600     -0.01266750     -0.02878250       1
H             -10.19800000     27.32790000     50.84290000     -0.03079320      0.01966620      0.03624730       1
O              12.44420000    -33.40130000    -15.71070000      0.00525780     -0.01716360     -0.03409900       8
H              13.65690000    -33.64840000    -17.14610000     -0.02171140      0.00586839      0.02683290       1
H              11.06440000    -34.62200000    -16.16930000      0.01715580      0.01177410      0.00551236       1
O              29.07350000     15.36690000     38.11480000     -0.04353480      0.09079900      0.03981280       8
H              27.24890000     15.88520000     38.62320000      0.04399770     -0.00463925      0.01309240       1
H              28.59030000     14.04590000     37.18970000     -0.01002280     -0.08770320     -0.05713950       1
O               1.00291000      1.42720000      1.16078000      0.03882760      0.03229870      0.09032860       8
H               0.94488400      1.96026000      3.26172000      0.00088695     -0.02563620     -0.10234100       1
H               2.82155000      1.84300000      0.71011100     -0.03019480     -0.01115170      0.00935257       1
O             -30.81010000     21.56660000     30.58430000     -0.03512540      0.03266770     -0.01574880       8
H             -32.58340000     22.04500000     30.98430000      0.01684150      0.01070550      0.00032612       1
H             -30.77320000     19.88790000     31.03350000      0.01352660     -0.04860440      0.01854790       1
O             -33.99760000     11.41940000     24.35800000      0.00797157      0.01554700     -0.01276800       8
H             -34.89970000     10.70310000     22.94820000      0.00248496      0.00249514      0.00084414       1
H             -32.88810000     12.88320000     23.59340000     -0.01651580     -0.03133700      0.01617670       1
O             -21.22250000     64.87830000    -20.07480000      0.00098600      0.00913437      0.01319170       8
H             -21.22980000     65.15850000    -18.21620000      0.00065473      0.00066729     -0.02056720       1
H             -21.60760000     63.13950000    -20.37160000      0.00376330     -0.00879640     -0.00354624       1
O              68.02560000     21.85090000     39.99970000      0.03608000      0.09787680     -0.05401870       8
H              67.12780000     23.54770000     39.71340000      0.02490660     -0.04643920     -0.00425786       1
H              66.96110000     20.96420000     40.94240000     -0.06128870     -0.05583170      0.06200130       1
O              57.83440000    -19.91970000      3.57599000      0.00552661     -0.00383371      0.06566920       8
H              57.02830000    -20.58650000      5.22027000      0.01302270      0.00821253     -0.03400180       1
H              56.96330000    -20.82220000      2.29967000     -0.01244860     -0.01623530     -0.02418350       1
O              28.54510000     18.09590000    -15.77160000     -0.03876770     -0.00445010      0.05150160       8
H              29.90620000     19.07930000    -16.35000000      0.03550150      0.00610723     -0.00003449       1
H              28.75710000     17.77380000    -13.87890000      0.00564803      0.00165813     -0.04254750       1
O             -15.04970000      6.80423000     63.55120000      0.06110840     -0.01151350      0.01455680       8
H             -13.92610000      8.38217000     63.71660000     -0.02475810     -0.03861870     -0.00657862       1
H             -13.79130000      5.26258000     63.82090000     -0.04151200      0.04605390     -0.00842889       1
O               6.22180000      1.73388000      0.00312000     -0.01021760      0.03515420     -0.02604500       8
H               5.97040000      2.42769000     -1.77544000      0.00030952     -0.01913310      0.03234900       1
H               6.85011000      0.05937400     -0.10238200      0.01151440     -0.01606760     -0.00521157       1
O              45.12890000      3.18941000     25.96010000     -0.02217780      0.03689080      0.02530530       8
H              44.38770000      4.75783000     26.82700000      0.01073860     -0.03090300     -0.03048490       1
H              45.64980000      2.13704000     27.36040000      0.00967495     -0.00462228     -0.00595566       1
O              -0.97819000     60.76010000     31.79560000     -0.00349258     -0.01489160     -0.01289910       8
H              -2.71977000     59.99420000     31.34580000      0.02892120      0.02570610      0.01207590       1
H              -0.93489200     62.59030000     31.87320000     -0.01928360     -0.00693044     -0.00011053       1
O              12.93690000     35.66850000     13.26040000      0.06007500      0.01007170      0.07346590       8
H              12.03940000     35.49050000     11.80570000     -0.01449260      0.00469935     -0.06009340       1
H              14.79030000     36.32650000     13.22230000     -0.04756330     -0.01064130     -0.01397830       1
O             -16.84780000     20.66350000     19.57080000     -0.00679304     -0.03038550     -0.04828720       8
H             -16.69990000     18.85590000     19.26880000     -0.01243460      0.00501850     -0.01734710       1
H             -16.28140000     20.56430000     21.24340000      0.01231750      0.02652250      0.05132140       1
O              32.16700000     34.23750000     52.22670000      0.01098090      0.05209460     -0.00621488       8
H              32.66820000     32.63120000     52.75200000      0.00353021     -0.03862950      0.00623580       1
H              30.43240000     34.55580000     52.64120000     -0.01672310     -0.00806067     -0.00279974       1
O              11.52510000     34.79780000     19.29810000      0.03566120     -0.06057640      0.00722240       8
H              12.15250000     35.73000000     17.87090000      0.00104304     -0.00274456     -0.00041236       1
H              12.49730000     33.02810000     19.31690000     -0.02975590      0.05717430     -0.00465683       1
O               3.35081000    -25.99780000     17.50690000     -0.06545700      0.05400980     -0.01515500       8
H               1.69349000    -26.53030000     18.25360000      0.02505230     -0.00782497     -0.01285560       1
H               4.66993000    -27.01940000     17.91760000      0.04514730     -0.04336410      0.02389910       1
O              -0.55537200     19.25380000      3.04392000     -0.06958030      0.05142290     -0.00048822       8
H               0.79978500     18.31380000      2.79050000      0.09152910     -0.06626450      0.00707101       1
H              -0.80844300     19.73610000      1.27443000     -0.02046030      0.01065760      0.00588433       1
O               1.63152000      1.48499000     12.98110000     -0.00330889     -0.00107999     -0.02119410       8
H               1.40805000      0.56391400     11.31800000      0.01186980      0.00244209      0.03129390       1
H               2.52970000      0.50195200     14.26400000     -0.00927277     -0.00374188     -0.01186260       1
O             -34.87390000     54.24310000    -29.96780000      0.01687670      0.00459531     -0.01854270       8
H             -33.08370000     54.45770000    -30.68760000     -0.02738400     -0.00835634      0.03166540       1
H             -34.81690000     53.06000000    -28.54990000      0.01349120      0.01223650     -0.00632584       1
O               6.17713000     51.60860000    -16.80590000     -0.05267950     -0.03053420     -0.01216010       8
H               5.69900000     53.01540000    -15.73400000      0.00042982      0.00790532      0.00692732       1
H               4.44582000     50.61550000    -16.88660000      0.05740220      0.02052720      0.00017043       1
O             -36.43920000     39.54190000      2.86636000     -0.05562810      0.01014720      0.00743295       8
H             -36.39790000     38.03380000      1.89114000      0.01160980     -0.01354920     -0.01061370       1
H             -38.35280000     39.80670000      2.99496000      0.04700410      0.00755161      0.00398167       1
O              19.56640000     35.19120000     18.57550000     -0.00844520     -0.05535130      0.02258410       8
H              19.25870000     36.17730000     17.15480000     -0.02048930      0.00793814     -0.03507380       1
H              19.13840000     33.21740000     18.30050000      0.02437760      0.05677480      0.00826669       1
O             -15.70060000    -12.52930000      7.74024000     -0.03059680     -0.02039000     -0.05077100       8
H             -16.29580000    -13.24430000      5.96048000      0.02995620      0.01859380      0.04485440       1
H             -17.34770000    -12.32760000      8.49605000      0.00236766     -0.00117073      0.00883830       1
O             -45.49140000      3.05829000     20.30240000     -0.01795670     -0.04355520      0.02837280       8
H             -45.63020000      1.53892000     19.27910000      0.00014305     -0.00927608      0.00382003       1
H             -44.91650000      4.20597000     19.13510000      0.01916990      0.05494100     -0.03426430       1
O             -20.85120000    -13.95630000     35.10900000      0.01852970     -0.05357440      0.01411320       8
H             -20.71970000    -15.87470000     35.33840000      0.02521380      0.03427000      0.02027410       1
H             -22.17200000    -14.34710000     34.01570000     -0.04305130      0.02695880     -0.03517940       1
O              17.65350000     14.80910000     29.98480000     -0.05341840     -0.04169280     -0.03398870       8
H              17.48790000     13.05870000     30.66020000      0.01495360      0.01885800      0.00076327       1
H              16.45290000     14.58060000     28.48410000      0.02710940      0.01923860      0.03257540       1
O             -22.74130000     -1.13853000     33.01880000      0.01765090     -0.09684080      0.00048269       8
H             -22.12630000     -3.27488000     33.39930000     -0.02302670      0.08455860     -0.01471460       1
H             -23.95270000     -1.42294000     31.62080000      0.00812535      0.01275310      0.01936800       1
O              43.02700000      7.80289000     36.44670000      0.14654200      0.02286280     -0.03281550       8
H              41.57200000      7.19670000     36.94000000     -0.09792910     -0.04934420      0.03808990       1
H              44.49960000      6.56551000     36.90290000     -0.04844350      0.02763660     -0.00641737       1
O              -8.58166000    -30.98390000     -5.68474000      0.00914724      0.00178837      0.00331436       8
H              -7.96906000    -32.16780000     -4.43942000      0.00567354     -0.00031086      0.00096723       1
H              -9.84537000    -31.91030000     -6.61103000     -0.00730459      0.00114566     -0.00874864       1
O              54.14220000    -19.12290000    -13.12720000      0.01754270      0.01063380      0.00801920       8
H              55.75650000    -18.68010000    -12.17540000     -0.03895910     -0.01688020     -0.00760045       1
H              52.94440000    -20.38900000    -12.41750000      0.02083070      0.01172280      0.00850685       1
O               9.65840000     -0.43744700     10.71840000     -0.03737210      0.04875490      0.04585280       8
H               9.59335000     -0.83549400     12.64390000      0.00752959      0.00345118     -0.05047870       1
H               8.52325000      1.21681000     10.49470000      0.03690390     -0.06395340     -0.00288373       1
O             -34.69060000     -2.88120000     46.95030000      0.02153510     -0.03967300     -0.03916670       8
H             -34.29430000     -3.83481000     45.17480000     -0.01336160      0.02300200      0.06397690       1
H             -33.49670000     -3.77591000     48.18000000     -0.01730120      0.01606290     -0.02238400       1
O              12.16520000     -7.61322000     -8.60099000     -0.03020410     -0.01207940      0.03207650       8
H              10.66350000     -8.34667000     -7.64067000      0.02469720      0.01294380     -0.02260170       1
H              12.18870000     -8.49228000    -10.15450000      0.00142534     -0.01390160     -0.01630820       1
O              20.48820000     17.42590000     12.71700000      0.00796393     -0.01438340     -0.02809420       8
H              19.20060000     18.61360000     13.13170000     -0.00123686      0.01414880      0.00224557       1
H              20.86050000     17.57300000     10.90130000     -0.00369356     -0.00002648      0.00825553       1
O              10.77150000     21.97090000     -9.25813000      0.04383100     -0.01133740     -0.03287370       8
H               9.84588000     21.73740000     -7.73140000     -0.00482161     -0.01552810      0.01662830       1
H              11.96980000     20.48270000     -9.64710000     -0.04473130      0.03481600      0.02404800       1
O              22.50680000     48.93900000     29.57220000     -0.00304345      0.04861000      0.02546110       8
H              20.92600000     48.59410000     30.42440000      0.00768572     -0.02090020     -0.00856714       1
H              23.17580000     47.61730000     28.61570000     -0.00551115     -0.03252040     -0.01642640       1
O              -7.29525000      7.37411000      2.47331000     -0.03914050      0.01276370      0.00380053       8
H              -8.01941000      8.85881000      1.42093000      0.01099930     -0.03369330      0.01717360       1
H              -8.76639000      6.21594000      3.04414000      0.02306730      0.02277670     -0.01824600       1
O              17.00040000    -23.26890000     12.42500000     -0.04804940      0.00959623     -0.01967350       8
H              16.75280000    -23.38710000     10.55650000      0.00484745     -0.00505827      0.02726110       1
H              15.16830000    -22.91920000     13.02600000      0.04299380     -0.00343638     -0.00628696       1
O              -0.36701900     16.43990000     40.52980000      0.00983314      0.00785812     -0.00789624       8
H              -0.89560800     15.24810000     41.91500000      0.00065400      0.01692060     -0.02248140       1
H              -1.48093000     16.89060000     39.06610000     -0.00281516     -0.01886970      0.03464490       1
O              42.78300000     44.59820000      0.62798700     -0.03744630     -0.02533100      0.07471330       8
H              44.03190000     45.76900000      0.09051100      0.01809930      0.01141650      0.00929038       1
H              42.42750000     44.72680000      2.66991000      0.02570980      0.00860176     -0.07910720       1
O              23.06090000     13.72240000    -28.98030000     -0.03079940      0.03650100     -0.02763090       8
H              24.31230000     12.93430000    -27.95690000     -0.00209021     -0.02879170     -0.00546721       1
H              21.84000000     12.71350000    -30.05760000      0.03153520     -0.01591650      0.03995260       1
O             -16.54420000     42.46700000      3.13472000     -0.06596060     -0.02953310      0.00454487       8
H             -18.34180000     41.56240000      3.27119000      0.05152410      0.01982620     -0.00753098       1
H             -16.68460000     43.44830000      4.66817000      0.01465310      0.00432260      0.00261390       1
O               8.87278000    -29.58540000     32.66900000     -0.05448990      0.04051050     -0.00883454       8
H              10.23200000    -30.64660000     32.73840000      0.05056480     -0.04269150      0.00667637       1
H               9.26833000    -28.07450000     33.59760000     -0.00157541      0.00791761      0.00267909       1
O               2.46965000     34.83340000      3.28828000     -0.04925940      0.03646700     -0.01499080       8
H               1.09932000     35.70140000      4.35230000      0.02403010     -0.03184240     -0.01034930       1
H               1.74287000     34.98160000      1.49012000      0.02018620     -0.01240800      0.03277350       1
O              -6.80107000    -11.65660000     13.78470000      0.05470780      0.01869070     -0.03046980       8
H              -5.69954000    -12.96680000     13.05830000     -0.02066730     -0.00586323      0.00831748       1
H              -5.69483000    -10.19170000     13.10850000     -0.03630350     -0.01538040      0.02181670       1
O              -5.26119000      5.68226000     18.41950000      0.05277280     -0.05864790      0.02719550       8
H              -4.01781000      4.60973000     19.64430000     -0.03734870      0.04872420     -0.00915549       1
H              -4.18869000      5.07322000     17.04000000     -0.01260360      0.01273340     -0.02092900       1
O              26.13070000    -14.57750000     -1.85259000     -0.01528820     -0.02736210     -0.00548417       8
H              25.81650000    -16.34520000     -2.52696000      0.00777006      0.03960940      0.01391740       1
H              27.81170000    -14.02310000     -2.23253000      0.00813976     -0.01187470     -0.00739742       1
O              23.46070000      4.71538000     46.38750000     -0.02130440     -0.02497490      0.01471520       8
H              22.36490000      3.96773000     47.88560000      0.04940830      0.01580640     -0.03319220       1
H              25.08860000      3.80171000     46.00010000     -0.03157330      0.00928733      0.01646930       1
O              16.30470000     26.46750000     47.92010000      0.05317690      0.04915260      0.03258580       8
H              18.13010000     26.29270000     48.56190000     -0.04366840      0.01335930     -0.01020800       1
H              15.80660000     24.91370000     47.34140000     -0.01955890     -0.06000540     -0.01719680       1
O             -17.46480000     10.20910000     22.25160000      0.08446940      0.02183950     -0.05480470       8
H             -15.47920000     10.54900000     21.84880000     -0.07100050     -0.00993981     -0.02182880       1
H             -16.97110000     10.21100000     23.91280000     -0.01490430     -0.00921475      0.07578830       1
