192
Lattice="22.40639 0.0 0.0 0.0 22.40639 0.0 0.0 0.0 22.40639" Properties=species:S:1:pos:R:3:force:R:3 TotEnergy=-1102.83798 cutoff=-1.0 nneightol=1.2 pbc="T T T"
O       12.61190000      12.83000000       7.10775000      -0.00188776      -0.01143940       0.00165853
H       12.84220000      11.81550000       5.59024000       0.00358725       0.01070110      -0.00113874
H       11.44650000      11.73620000       8.01829000       0.00159270       0.00730410      -0.00383486
O        1.96249000       1.15201000      18.67260000      -0.00103843      -0.00408800       0.00343288
H        0.20606200       1.60204000      18.51900000       0.00111455       0.00701161       0.00273375
H        1.92010000      21.77507500      18.44990000       0.00825126      -0.00531254       0.00070441
O       11.98340000      13.50020000      17.81860000      -0.01781110       0.01578340       0.02215260
H       11.69960000      15.40670000      17.69360000      -0.00051521      -0.04858690       0.00032221
H       13.41800000      13.93750000      15.24790000      -0.04004410      -0.03051060       0.07829480
O       12.58730000       5.90793000      16.87430000      -0.00497976      -0.00067572       0.01546950
H       12.64470000       6.88285000      18.43410000      -0.00272709      -0.00073825      -0.00196258
H       10.29350000       3.46328000      18.37470000      -0.04276710      -0.01168350      -0.00659886
O       13.90370000      12.11460000       2.31640000      -0.00036608      -0.00228223      -0.00736900
H       13.08230000      10.88680000       1.21945000      -0.00114644      -0.00438037       0.00125552
H       13.29650000      13.75280000       1.82632000      -0.00154342      -0.00320962       0.00038007
O        2.25962000       1.03833000       1.35326000       0.00150114       0.00278849      -0.00232854
H        0.54253700       0.43625100       1.55875000      -0.00158056      -0.00281494       0.00343341
H        2.43850000       1.25343000      21.92376600      -0.00044731      -0.00095660       0.00289031
O        9.64675000       1.20754000      14.13130000       0.01840410       0.03809350      -0.02508580
H       11.69610000      20.31117000      12.08100000      -0.00119921      -0.00837664      -0.00723757
H        8.45553000       1.67187000      12.84260000      -0.02099020      -0.01564980      -0.00418294
O       20.47400000      19.27190000      16.60260000      -0.02471840       0.04804580      -0.00869250
H       20.05130000      18.00000000      15.27780000      -0.00387697       0.00173500      -0.00283501
H        0.72171000      19.07720000      16.75120000       0.00071903      -0.00838155       0.00083158
O       17.03420000      12.66940000      20.58090000      -0.03151680      -0.03020740       0.03650090
H       16.38970000      11.74160000      22.16410000       0.01886350       0.02649100      -0.03311810
H       15.73480000      12.17290000      19.38820000      -0.00074206       0.00740571      -0.00146743
O        5.07573000      12.90760000      13.85380000       0.00446009      -0.00935321      -0.00422059
H        4.64225000      14.21070000      11.91390000       0.00793819      -0.00681069       0.00428953
H        5.76108000      11.14940000      13.77300000       0.00685525       0.02076730      -0.01342610
O        7.94801000      17.13430000       4.63884000       0.01842680       0.02249850       0.02685500
H        9.81879000      17.18930000       4.69928000      -0.00230360      -0.00987495      -0.00458126
H        7.63238000      18.11500000       6.19011000      -0.00891698      -0.01451590      -0.00650165
O        0.97409400       9.69632000      10.71300000      -0.00780739      -0.00093805       0.00407571
H        2.62313000       8.77685000      10.92910000       0.00856879      -0.01280420      -0.00443067
H        0.87154100      10.07770000       8.94505000       0.00455120       0.00442034      -0.00321272
O        3.71711000       5.42498000      16.81220000      -0.00429290      -0.00167163      -0.02199950
H        3.90308000       3.59560000      16.95170000      -0.00856024       0.02004930      -0.00188024
H       11.81070000      10.48800000      15.93300000      -0.00665403       0.01449260       0.00668042
O       17.25580000       4.28527000      18.10170000      -0.03735950       0.00792647      -0.01430610
H       18.32490000       5.09443000      16.86720000       0.01769300       0.00496344      -0.00472817
H       15.45650000       4.82570000      17.65220000       0.01382180      -0.00259480       0.01526770
O        6.21881000      13.74280000       2.06399000       0.00168215      -0.00314198       0.00640074
H        6.17834000      12.11610000       2.94256000      -0.00397148      -0.00195315      -0.00649245
H        6.79381000      15.06890000       3.30488000      -0.00307194      -0.00865142      -0.00982286
O       14.42670000      21.83400000       6.70978000       0.00199146       0.00809751      -0.00072382
H       14.15010000       0.00061000       4.99763000      -0.00120514      -0.00003130       0.00138023
H       13.42000000       0.58761000       7.67306000      -0.00176361      -0.00097287      -0.00175015
O       21.74020000      12.42320000      19.63050000       0.00323820       0.00802310       0.00438440
H       22.11770000      11.99120000      17.89390000      -0.00353917      -0.00313153       0.00048754
H       19.91310000      12.70320000      19.84290000       0.00644051      -0.00568688      -0.00388858
O       13.17400000       7.59991000      21.90863500       0.00165942       0.00435878      -0.00211675
H       12.19970000       6.42625000       0.56341200      -0.00431461       0.00322283      -0.00478999
H       14.84920000       6.87927000      22.11094700      -0.00048174       0.00348500       0.00105158
O       17.75520000      17.48370000       1.67263000      -0.03875550      -0.00491861      -0.03692300
H       16.55540000      18.12510000       0.32873000       0.02917250       0.00208591       0.02361490
H       17.33700000      15.74440000       1.26607000       0.01823270      -0.00047957       0.01154590
O        8.61764000       2.36332000      18.60610000       0.04780540       0.02916660       0.01898640
H        7.35751000       4.26047000      19.50090000      -0.00036676       0.06007130      -0.00467588
H        8.15758000       2.01976000      16.87300000      -0.00295767       0.00161171      -0.00814271
O        9.36901000      19.28610000      18.79320000      -0.00521080      -0.00358342      -0.00199337
H        9.35758000      21.07410000      18.47030000      -0.00051276      -0.00000761       0.00330986
H        8.21810000      19.14150000      20.22200000      -0.00022305       0.00228540      -0.00097832
O       13.28290000      19.70570000      11.28980000       0.00720978      -0.00359108       0.02664550
H       14.38760000      20.81470000      12.38080000       0.00700211      -0.00501391       0.00563465
H       13.69390000      17.88410000      11.78590000      -0.00879530       0.00967694       0.00401111
O       15.61910000      17.80680000      19.28340000      -0.00359955       0.00260639      -0.00850110
H       16.12440000      16.42720000      18.20890000      -0.00095053       0.00199383       0.00728223
H       15.28070000      19.19340000      18.16740000       0.00088473      -0.00162076       0.00080924
O       15.67960000       4.47524000       5.96977000      -0.00399175       0.00200547       0.00775279
H       16.52280000       5.97104000       6.58512000       0.00101439      -0.00474804      -0.00250771
H       16.31170000       4.22832000       4.21411000      -0.00314709       0.00422984       0.01148970
O       18.77980000      19.49020000       6.97822000      -0.00200187       0.03924470      -0.01481450
H       19.98810000      20.54370000       6.00812000      -0.00956018      -0.02344390       0.00538906
H       17.38650000      20.76040000       7.14245000      -0.00041514      -0.02477500      -0.00675930
O       14.12050000      14.39660000      13.77330000       0.06863650       0.04466160      -0.12151000
H       17.48200000      15.61440000      13.55500000      -0.10366300      -0.04590150       0.01410170
H       14.42790000      12.79110000      12.63190000      -0.02631820       0.01140550       0.02098190
O        5.31592000       7.21143000      10.76690000       0.00627174       0.00431614       0.00603082
H        5.95229000       7.00781000      12.47920000      -0.00908308      -0.00449380      -0.01169820
H        9.31699000       4.59879000       9.88849000       0.05992780       0.00389784      -0.02660000
O       12.23240000      19.28480000       1.07398000      -0.00014369      -0.00229818      -0.01311770
H       12.83870000      18.39910000       2.57054000       0.00284492      -0.00244343      -0.00533800
H       12.36720000      18.19570000      22.01128500      -0.00009411       0.00203648       0.00953758
O        8.07615000      19.20510000       9.31275000       0.07270970      -0.06519890       0.05312600
H        9.11168000      18.23420000      10.81350000      -0.05038250       0.03667500      -0.06303330
H        6.91802000      20.31810000      10.21260000      -0.03366550       0.02862790       0.00911452
O        1.94308000      12.61620000       6.64907000      -0.00362317       0.00620091      -0.00154133
H        2.68579000      13.48470000       5.25099000      -0.00395943      -0.00566799      -0.00759768
H        3.04039000      13.00540000       8.02634000       0.00288062       0.00049467       0.00034539
O        5.39758000       9.19740000       4.68428000      -0.00528423      -0.00529538      -0.00583427
H        4.28212000       8.81881000       3.28856000      -0.00086608      -0.00013698       0.00075990
H        5.60396000       7.51456000       5.35338000       0.00597368       0.00122057       0.00058743
O       20.81500000       6.16625000      14.74120000       0.00215043       0.00447595       0.00340276
H        0.16391000       6.26491000      15.35020000      -0.00096998      -0.00624609       0.00228260
H       20.93270000       5.47986000      13.06750000       0.00233722      -0.00294634      -0.00005644
O        7.44215000      11.22350000      19.10510000       0.01279520      -0.00234121      -0.00563292
H        6.21282000      12.47120000      19.62070000      -0.00908959       0.00124589       0.00342200
H        9.16411000      12.05730000      18.89910000      -0.00248294      -0.00444335       0.00008038
O       11.54910000       4.06173000       2.57777000       0.00199932       0.00515141       0.00493220
H        9.88699000       3.74089000       3.24219000       0.00332164       0.00028410      -0.00089340
H       12.48500000       4.76198000       3.98829000      -0.00602604      -0.00362148      -0.00568642
O        0.79855800      10.60350000       1.50546000       0.00593274       0.00917708      -0.00817748
H       21.85386400      10.07790000       2.59263000      -0.00611687       0.00218456       0.00903668
H        0.08909500      11.03210000      22.25394900       0.00161724       0.00359286       0.00207173
O        0.44746000       4.42125000       5.39751000      -0.00026466      -0.00601901       0.00570130
H        1.16661000       3.08119000       4.38219000       0.00107375       0.00588838       0.00040581
H        1.74865000       4.83985000       6.59166000       0.00239969      -0.00365554      -0.00134286
O       17.40800000       5.38076000       1.46139000       0.00066561       0.01224230       0.01273050
H       18.45730000       6.61777000       2.41822000      -0.00629809      -0.00774799      -0.00979146
H       18.42230000       4.54445000       0.24916400       0.00847819      -0.00358912      -0.00904329
O       14.80330000      22.20131800      15.33920000       0.00803226       0.00020718       0.00049183
H       16.03640000       1.12820000      15.43030000       0.00242315       0.00107397      -0.00232320
H       13.94790000       0.01945300      17.00340000       0.00208992      -0.00340224      -0.00447961
O        0.51078900      12.43210000      14.86300000      -0.02474740       0.03832620      -0.00598513
H        0.46235800      11.41710000      13.32960000      -0.00340269      -0.01281040      -0.01162670
H        3.42934000      12.72470000      14.72930000      -0.01040170       0.00450980      -0.00231614
O        3.71852000      15.26350000      20.82090000      -0.00107936      -0.00631703      -0.00196202
H        2.05690000      14.45670000      20.70980000       0.00930495      -0.00363778       0.00584989
H        4.86167000      14.45220000       0.36821000      -0.01480270       0.00947438      -0.01865990
O       10.19420000       8.69419000       6.58347000      -0.01160220       0.01406060       0.00003207
H       10.46910000       7.21139000       7.57260000       0.00138656      -0.00783594       0.00186262
H        8.45826000       9.08161000       6.99017000       0.00501809       0.00069810      -0.00528286
O       13.47320000       0.60043300      20.07950000      -0.00596753      -0.00152711      -0.00064433
H       13.24340000      21.86276100      21.49660000       0.00817177      -0.00574431       0.00465424
H       11.74800000       1.13156000      19.90850000       0.00102531       0.00569620       0.00319722
O        2.59886000      18.61340000      17.26490000       0.00674468      -0.01926420       0.01268260
H        3.87904000      18.57150000      15.88390000      -0.00393534      -0.00227791       0.00879811
H        2.94768000      17.21560000      18.79600000       0.00816937       0.01077720      -0.00894840
O       10.58300000       4.20385000       8.44549000       0.03953780      -0.01020730       0.00214785
H       10.60250000       2.84807000      14.07080000      -0.00083225      -0.03033200       0.01040100
H       12.64540000       4.41273000       8.12628000      -0.08030920       0.00058063       0.03319500
O        6.96154000       6.51957000      19.94870000       0.00505413      -0.01139390       0.00975759
H        7.11624000       9.04203000      19.36400000       0.00857833      -0.02331750       0.00661488
H        5.28012000       6.44140000      20.76380000       0.00997319       0.00300922      -0.00375271
O        0.52051000      20.22780000      10.97680000      -0.00753458      -0.00547337       0.00210055
H       19.48650000      20.82950000      16.01660000       0.03646110      -0.04132310       0.01129060
H       22.03070000      19.30110000       9.67604000       0.00642178       0.00448671       0.00550277
O       18.29700000       8.29988000       9.33929000       0.00421202      -0.00972604      -0.00569570
H       19.79250000       8.87725000      10.22800000      -0.00404599      -0.00285140       0.00674647
H       16.80380000       8.55451000      10.32100000      -0.00436219       0.01216500       0.01031600
O        9.66309000      22.34930000       4.90051000      -0.00819161      -0.01864340       0.01947000
H        8.89739000      21.54630000       3.46834000       0.00109109       0.00635742      -0.00998561
H        9.24660000      21.18600000       6.27459000       0.00541828       0.02015590      -0.00782654
O       13.15920000      17.19610000       5.50849000      -0.00990010      -0.00315745      -0.00396921
H       13.54150000      18.79860000       6.29874000       0.00410894      -0.00479605       0.00761336
H       13.39610000      15.61730000       6.50993000      -0.00612705       0.01072010      -0.00385052
O       19.47250000       0.78126600      20.10460000      -0.00888837      -0.00488271      -0.00431419
H       18.13650000       1.80227000      19.24310000       0.00802964       0.00146042       0.00493921
H       19.21210000      21.43731100      19.71600000      -0.00099288      -0.00336756       0.00130591
O        4.66401000      22.24645500      10.86810000      -0.01695720       0.01309330      -0.01058720
H        4.47274000       1.26100000       9.65871000       0.01514210      -0.01568000       0.01259550
H        2.63380000      21.50156000      10.83090000       0.01982920      -0.00975674       0.00048322
O        5.82733000       3.61018000       7.37296000      -0.02220470       0.01655420       0.00426280
H        7.56627000       3.17010000       7.16637000       0.00234579      -0.00011246      -0.00527608
H        5.66779000       5.02907000       8.68262000       0.00454313      -0.00652247       0.00046260
O        6.85294000      17.57660000      14.65400000       0.00425357       0.00155380       0.00304580
H        7.94902000      18.24080000      15.99530000      -0.00363108       0.00053485       0.00223751
H        6.62502000      15.82300000      15.13050000       0.00414028       0.00016973      -0.00562639
O       19.02100000      16.25230000      13.41680000       0.09712100       0.02684280      -0.00747728
H       21.82850000      13.93900000      14.43110000       0.01792110      -0.02830880       0.01107060
H       19.65790000      15.72750000      11.78370000       0.00299221       0.00643104      -0.02810160
O        4.49626000      15.63380000      10.09770000      -0.00335182       0.00102582       0.01148880
H        6.20496000      16.26720000       9.72197000      -0.01450800       0.00616619       0.00242602
H        3.38075000      17.13720000      10.37000000       0.00468893      -0.00736958       0.00062468
O       19.96540000       8.40366000       4.60676000      -0.03895690       0.04572310      -0.02341830
H       19.30120000       8.77075000       6.23827000      -0.01894020       0.01897170       0.01339370
H       20.97090000       7.09245000       5.06806000       0.05442390      -0.06375970       0.00585508
O        3.14271000       6.56792000       0.61164200       0.00925086      -0.01139380      -0.00138232
H        1.97039000       7.97188000       0.71722400      -0.00825760       0.00570392       0.00050058
H        2.27737000       5.01041000       0.86409000      -0.00220084      -0.00468223       0.00300799
O       19.85970000      22.16370000       2.45103000       0.00027083      -0.00565263       0.00302802
H       19.67690000      20.36430000       2.15144000      -0.00395202       0.00053846       0.00102793
H       19.43580000       0.47231000       0.79714600      -0.00133179      -0.00021623       0.00233319
O       20.09450000      15.33640000       8.26212000      -0.01822150       0.01081420      -0.02064910
H       18.59490000      17.00970000       6.40225000       0.04933070      -0.00815634       0.05401470
H       21.53170000      14.31610000       7.67460000      -0.02099290       0.01056430      -0.00568337
O       13.28400000      10.38840000      11.43340000       0.02815020      -0.01029010       0.00681459
H       13.01090000       7.29087000      13.47330000       0.02404390      -0.02319740      -0.03434870
H       13.88910000      10.81390000       9.77461000       0.00051819      -0.00495768       0.00091840
O        6.23834000      20.24280000       0.77329400       0.03021380      -0.04373290       0.04034470
H        6.82785000      19.00980000       2.16301000      -0.00938993       0.02581520      -0.04091700
H        4.74221000      20.86170000       1.56376000      -0.01671730       0.01676410      -0.00681250
O       19.70540000       2.21017000      11.09910000      -0.03745440      -0.00883283      -0.08814000
H       19.22360000       1.87828000       9.14763000       0.01426320       0.02616350       0.07190270
H       20.91450000       0.82591100      11.12910000       0.01532610      -0.01707430       0.01729420
O        9.24698000       9.97150000      13.36710000      -0.01789220      -0.00245286       0.07438370
H       10.59500000      10.84790000      12.38690000       0.01394590      -0.00908899      -0.00184504
H        9.70954000      10.16840000      15.48440000      -0.00559894      -0.00315908      -0.06585240
O       13.94180000       5.11834000      12.90760000       0.05625510      -0.00457528      -0.09823440
H       14.37700000       5.15739000      14.60430000       0.01024760      -0.01162880       0.06642810
H       16.16560000       4.31116000      11.78990000      -0.07300920       0.04026610       0.03592980
