192
Lattice="24.83406 0.0 0.0 0.0 24.83406 0.0 0.0 0.0 24.83406" Properties=species:S:1:pos:R:3:force:R:3 TotEnergy=-1103.49861 cutoff=-1.0 nneightol=1.2 pbc="T T T"
O       23.96710000      20.87148000      19.67172000      -0.04242310      -0.04500670      -0.05817370
H       22.40990000      21.09354000      18.23952000       0.05148260      -0.01152760       0.05498610
H       24.50580000      18.95657000      19.46622000      -0.01126990       0.05163670       0.00125055
O       23.56574000      21.60004000      24.78562900      -0.01114760       0.00033338       0.02143210
H       23.70374000      23.28504000       0.69667800       0.00558388      -0.00302740      -0.00518371
H       23.96934000      21.69734000      23.02104000       0.00004958      -0.00430185      -0.01358760
O       11.56740000       4.33172000      14.78430000       0.05976470       0.06631360       0.04546080
H       12.33570000       4.62649000      16.59110000      -0.02128440      -0.01775190      -0.04386720
H       10.45020000       3.02081000      14.75480000      -0.02986430      -0.05018620       0.00143238
O       18.68821000      14.61296000      21.20032000       0.01693750      -0.12901900      -0.05510540
H       20.41771000      13.96626000      20.72568000      -0.02705610       0.01104930       0.00651174
H       18.84200000      16.16969000      21.70383000       0.01307970       0.12181500       0.04468050
O        5.41739000       7.60174000      19.30060000       0.02681540       0.00589505      -0.03221690
H        6.82683000       8.62514000      20.35770000      -0.03627290      -0.01080480      -0.03007320
H        5.74127000       7.76504000      17.37960000      -0.00077062       0.00327823       0.05623720
O       19.46969000      10.14760000       6.13327000       0.01801070       0.02290250       0.01220520
H       19.25528000       8.99808000       7.52932000      -0.00350299      -0.00514927      -0.00406294
H       18.70136000       9.47093000       4.64348000      -0.00887742      -0.01365000      -0.00029434
O       20.82004000       2.41444000      12.82020000      -0.01993190      -0.00758809      -0.00452533
H       22.52364000       1.75334000      12.81840000      -0.00341582      -0.00280845       0.00141945
H       19.62074000       1.16034000      12.07150000       0.02383680       0.00619098       0.00917444
O       22.55380000      17.93732000       7.81154000       0.00908666      -0.00117162      -0.00221722
H       23.68808000      17.69042000       6.31070000      -0.02042970       0.01567340       0.00103665
H       20.83769000      17.46522000       7.30820000       0.00941945      -0.00316556       0.00010843
O        6.08434000      15.25752000      19.24730000       0.05735950      -0.02912920       0.04428180
H        4.52524000      16.00002000      18.88860000      -0.04487010       0.00513735      -0.00127292
H        6.11974000      14.27162000      20.89510000      -0.00817502       0.01862800      -0.04347570
O        9.09558000      23.20322000      24.67172000       0.08761020       0.00536791      -0.00162239
H       10.66570000      24.21322000      23.99982000      -0.05615910      -0.03054630       0.01907400
H       10.01510000      21.94162000       0.98176000      -0.03528230       0.02097090      -0.02506720
O       14.34666000       2.91172000       8.82253000       0.00395126      -0.00855782       0.00128443
H       13.70016000       2.91146000       7.12529000       0.00241091       0.00300475      -0.00843195
H       12.89566000       2.94227000       9.90793000      -0.00162339      -0.00077082       0.00708319
O       13.15906000       3.88504000       3.41738000      -0.04559730      -0.00567044      -0.05160090
H       11.23086000       4.01964000       3.46128000       0.03614620      -0.00186507       0.00259014
H       13.47046000       3.51474000       1.47398000       0.00292604       0.00098692       0.05972140
O       16.29360000      18.32222000      10.55216000      -0.00191023      -0.00294577       0.00624246
H       16.43090000      16.68542000       9.60506000       0.00755376       0.02708260       0.02154500
H       16.70750000      18.19402000      12.36226000      -0.00478497      -0.01603560      -0.02285900
O        6.06064000      14.56520000      13.00514000      -0.00980590       0.01965840       0.01923480
H        4.99044000      14.89860000      14.48694000       0.01020730      -0.01029130      -0.01884030
H        5.18364000      13.40350000      11.92844000      -0.00715463      -0.00446815       0.00111559
O       24.08774100       1.23808000       2.54604000       0.06403070       0.11546800      -0.13947600
H       23.83072000       0.31593300       3.81954000      -0.02683700      -0.10520600       0.15640400
H        1.01390000       1.93900000       2.69459000      -0.03406590      -0.01920940      -0.00867120
O       18.00822000      23.76730000       9.99854000      -0.09092900      -0.04545200      -0.01132270
H       16.34802000      24.78370000       9.44664000       0.05577040      -0.02568600       0.01611310
H       17.22202000      21.81840000      10.22414000       0.03841110       0.07343470      -0.01009960
O       15.53432000      11.74990000      24.01050000      -0.05560070       0.00878581      -0.04077490
H       14.03032000      11.71250000      22.61390000       0.05776330      -0.00625766       0.04500900
H       16.76332000      12.82740000      23.13220000      -0.00018916      -0.00898402       0.00045330
O        5.13026000      16.34458000       3.69136000       0.00004488      -0.00278119       0.02252970
H        5.40296000      15.50968000       5.33636000      -0.00054670       0.00081268      -0.02012510
H        4.85216000      14.98498000       2.50126000       0.00142613      -0.00158171       0.00056147
O       19.58968000      20.44230000      16.45904000      -0.07447780      -0.03426100       0.01689700
H       18.05168000      21.71150000      16.24314000       0.04483210      -0.03062290       0.00870138
H       18.61998000      18.69490000      17.02714000       0.03393500       0.07066520      -0.02446130
O        7.73098000       4.21956000       3.67504000       0.04595990       0.04534080       0.03932770
H        7.37618000       3.88586000       5.44955000      -0.00695761      -0.00266775      -0.00193532
H        6.81678000       3.13806000       2.69807000      -0.04030350      -0.04215590      -0.03688060
O        6.95064000      20.27150000      10.63116000      -0.11514000      -0.03781750       0.07124300
H        8.41574000      20.08400000       9.79996000       0.07333530      -0.02131080      -0.03780020
H        6.31034000      18.59610000      11.51896000       0.03434260       0.05301510      -0.03521010
O        7.50966000       7.94430000      14.19548000      -0.08608600      -0.01495640       0.05394780
H        8.30356000       9.09105000      13.24378000       0.04592690       0.06051460      -0.04658850
H        8.30616000       6.41875000      14.07518000       0.03699320      -0.04465760      -0.00374152
O        4.47510000       0.91467800       0.54120400       0.03102220      -0.01135800      -0.01805400
H        4.01944000       1.71340000      23.69941000       0.01215410      -0.01137840       0.02659180
H        6.07713000      24.66572500       0.32137500      -0.04106970       0.02683750      -0.00044010
O       20.38684000       4.19121000       0.86844000      -0.03490130       0.01900570       0.06581000
H       19.49234000       5.29570000       2.21644000       0.00697481      -0.00895823      -0.05470460
H       20.97674000       3.01341000       2.14534000       0.01943900      -0.00682115      -0.02201250
O       24.50105400      12.56078000       5.50394000      -0.05859740       0.07072960       0.05427730
H       22.74706000      11.75888000       6.04674000       0.05109570       0.02366170      -0.02195580
H       24.27141000      14.72198000       6.09804000       0.00660902      -0.10867900      -0.03198890
O       10.43850000      11.77544000      11.87340000       0.02107100      -0.00983037       0.04589890
H        9.60133000      12.09874000      10.38220000      -0.01847180       0.01436240      -0.04607810
H       12.16600000      11.34514000      11.56370000       0.00492860      -0.00712715      -0.00429555
O        7.66756000      20.25730000      19.79280000       0.01649090       0.05523900       0.00015825
H        7.29706000      18.53490000      19.94560000      -0.00593147      -0.03499010       0.01313530
H        8.28436000      21.05770000      21.36250000      -0.00819399      -0.01850770      -0.01337880
O        7.96734000       9.46684000       2.46708000      -0.04185920       0.00766877      -0.01526250
H        8.30314000       7.69964000       2.77258000      -0.00621721      -0.00314856       0.00091314
H        6.03914000       9.64724000       2.34248000       0.04202810      -0.00007792       0.00702870
O       12.72850000      10.74554000      19.61120000      -0.01325650       0.02626680      -0.01257240
H       12.18360000      11.92714000      18.14660000       0.00561920      -0.02850570       0.02633880
H       13.29060000       9.10094000      19.10630000       0.00252931      -0.00038430      -0.00589735
O        3.14214000      23.73772000      18.66710000       0.03697360      -0.08254850       0.01415140
H        1.72135000      22.44342000      19.04110000       0.01277610       0.03205110      -0.01015850
H        4.68967000      22.46002000      19.02020000      -0.04473930       0.04943260      -0.01400250
O       24.70538600      17.83410000       3.23354000      -0.00117844       0.05509860      -0.03959200
H        1.73683000      17.96300000       3.24177000      -0.02214980      -0.00378996      -0.00362106
H       24.04575400      19.39070000       1.81793000       0.02928420      -0.04718650       0.04414150
O        1.60270000       0.95024400      13.52010000       0.00482000       0.00835519       0.09826880
H        2.22727000       0.21269700      12.09540000       0.02020350      -0.03101580      -0.05947810
H        2.65709000       0.08480900      14.91610000      -0.03486300       0.02451450      -0.02568870
O       14.53272000       4.81248000      19.04222000       0.03181370      -0.04408970       0.06118270
H       16.39272000       4.74458000      18.41912000      -0.03595360       0.00853072       0.01985270
H       14.56382000       3.80428000      20.94202000       0.00449011       0.04432680      -0.07541550
O        6.09511000       2.96058000       8.59646000       0.04447520      -0.08715080      -0.04879680
H        4.99133000       4.07908000       9.23286000      -0.05503030       0.05655830       0.03696760
H        5.04684000       1.32118000       8.32036000       0.01856050       0.03612080       0.01144120
O       15.02002000      16.68674000       2.26812000      -0.05678870       0.16409500       0.09074130
H       14.95522000      15.30884000       1.46753000       0.00477152      -0.16766000      -0.09550800
H       13.13932000      17.15324000       2.22361000       0.04446280      -0.00161869       0.00699103
O       19.23420000      10.43064000      16.63770000      -0.05973510       0.01271390      -0.08063860
H       17.86590000      10.71454000      15.01410000       0.05655750      -0.02034270       0.07456480
H       19.50440000       8.60764000      16.62180000      -0.00564888       0.00380907       0.00292009
O        7.58016000      12.52486000       6.85705000      -0.04769340       0.01917550       0.07713980
H        8.37616000      11.82286000       5.49840000       0.01747580      -0.03475810      -0.04604660
H        6.23086000      11.39786000       7.64298000       0.02614650       0.01729870      -0.02543840
O        3.08932000       3.32003000      21.00430000      -0.09361160      -0.02539460       0.08916730
H        3.07152000       1.80465000      20.16420000      -0.00557770      -0.06074110      -0.03199330
H        4.25012000       4.20792000      20.26540000       0.09532450       0.08633440      -0.05758400
O        3.45026000      10.72756000       9.42564000      -0.04218170      -0.06607220       0.02217620
H        2.66026000       8.92686000       9.96134000       0.03664730       0.05806920      -0.01419740
H        1.93646000      11.43566000       8.67264000       0.00587949       0.00684280      -0.00865083
O       18.00600000      15.37880000       6.55454000       0.14108400      -0.01678770       0.12689500
H       18.66880000      13.73420000       6.29014000      -0.00102809      -0.02039630      -0.00376795
H       16.78860000      15.69210000       5.58584000      -0.14284200       0.03399320      -0.12464500
O        3.16576000      23.92113800       9.27884000      -0.02119450      -0.07202860      -0.04353430
H        4.04716000      22.20669000       9.34594000      -0.00146020       0.03765220       0.00903083
H        1.61146000      23.36901000       8.25374000       0.02373940       0.02623530       0.02409120
O       18.61164000       6.45298000      10.30704000      -0.01684110      -0.05826160      -0.00895148
H       17.73284000       4.84076000       9.71724000       0.00211644       0.04678190      -0.00368793
H       19.55464000       5.46478000      11.53754000       0.01818640       0.01386310       0.00396623
O       16.46528000      16.02812000      15.70106000       0.00319722      -0.02664120       0.02334160
H       17.66640000      14.85702000      16.54525000      -0.01731740       0.01432770      -0.00965124
H       14.84570000      15.48852000      16.43344000       0.01317520       0.00714035      -0.00754440
O        2.68418000       5.67756000      11.85416000       0.04543140       0.05425900       0.02056880
H        3.98138000       6.61396000      13.01616000      -0.03721720      -0.03416670      -0.03311710
H        2.29518000       4.06426000      12.58506000      -0.00256791      -0.01181330       0.01345330
O        9.70226000       0.67421700      11.86390000       0.02480500       0.07170690      -0.00259369
H        9.50712000      23.82344000      12.01130000      -0.02103420      -0.07089580       0.00840926
H        8.54226000       1.40472000      10.67800000      -0.01238030      -0.00256376      -0.00451169
O       14.73802000      22.35765000      21.85614000       0.01715700       0.00633663      -0.00920488
H       15.61762000      22.95763000      20.36294000      -0.01569430       0.00697372      -0.00842228
H       15.91282000      20.99148000      22.19474000      -0.00221991      -0.00646678       0.02211000
O       10.53750000      13.94716000      16.61959000       0.06057880      -0.01457440      -0.05105920
H        9.04574000      14.58486000      17.25591000      -0.04777600       0.01175750       0.01464020
H       10.37190000      13.41196000      14.79256000      -0.00979355       0.00893210       0.02848280
O       24.40650000      18.74990000      13.47140000      -0.01796110      -0.02424090      -0.06443760
H       22.72950000      18.70080000      14.15260000      -0.00606760       0.00894223       0.00776684
H       23.96740000      18.18520000      11.61680000       0.02003340       0.01782460       0.05294770
O       11.17450000      20.89610000      15.34807000      -0.01008760      -0.09996290       0.03419220
H       10.21510000      20.15810000      16.92915000       0.01733320       0.04400170      -0.03427500
H       11.59940000      19.03610000      14.79756000      -0.00439107       0.06344380       0.00224323
O       22.97180000      23.40114000       7.07664000      -0.00897123      -0.05439520      -0.00170625
H       21.47530000      23.79874000       8.00734000      -0.00852108       0.01807640       0.00853000
H       22.61360000      21.50064000       7.08194000       0.01921540       0.03060270      -0.00504059
O       16.63475000       7.36402000       2.77772000       0.03595900       0.01819420       0.00102135
H       16.17022000       8.67738000       1.64652000      -0.00138544       0.01471470      -0.01829580
H       15.13723000       6.46706000       3.08172000      -0.02810390      -0.02282490       0.01281830
O       15.58730000      23.99062000      16.61510000      -0.01480790      -0.12150800      -0.01162870
H       13.92470000      23.20062000      16.11800000       0.02010780       0.03287450       0.00896243
H       15.96740000       0.78496000      16.85510000      -0.00886608       0.08178260       0.00201579
O        1.47895000      16.48590000      17.86154000      -0.03648200       0.00303191      -0.05231900
H        0.30583500      14.92840000      17.75964000       0.01856010       0.02472030       0.01203540
H        1.07215000      17.36160000      16.14814000       0.01319700      -0.01979950       0.03849930
O       18.31374000      19.04194000      23.90646800      -0.07594160      -0.03382140       0.02616840
H       19.79404000      19.63674000      24.47420300       0.08302210       0.03860320       0.01134840
H       17.62404000      18.47034000       0.77762200      -0.00574070       0.00340816      -0.04306100
O       22.96070000      12.91750000      18.69422000       0.05978680      -0.01253550       0.05293770
H       23.92310000      11.43150000      19.57902000      -0.01358990       0.03601880      -0.01713430
H       21.72130000      12.15670000      17.72022000      -0.03619220      -0.02602910      -0.03235830
O        9.45956000      18.84494000       3.01847000      -0.00791306      -0.01140740      -0.00622527
H        7.88466000      17.99614000       3.67325000       0.01954060       0.01147390      -0.01440950
H       10.29766000      19.70554000       4.34181000       0.00076561       0.00301821       0.02025790
O       11.70930000      20.99062000       8.51834000       0.03755430       0.05603590       0.05365620
H       13.10780000      20.29852000       9.53464000      -0.00826880      -0.02501320      -0.01949910
H       11.99190000      22.68272000       9.47994000      -0.02579160      -0.03195690      -0.04051030
O        3.25082000      11.80784000       1.41103000       0.00043325      -0.03754400      -0.03313670
H        2.08807000      12.01664000       2.77445000      -0.01631760      -0.00139628       0.00780810
H        2.46656000      10.56274000       0.15659200       0.01303910       0.03723250       0.02091210
O       15.10131000       8.86756000      13.01870000      -0.03942940       0.04853200       0.03300810
H       14.11976000       7.50546000      13.64460000      -0.00338972      -0.01280670      -0.00019529
H       16.37145000       8.29776000      11.98130000       0.03535040      -0.03083460      -0.03444760
O       19.37631000       5.14631000      17.40450000       0.02656780      -0.00175861       0.02634520
H       20.91014000       4.91701000      18.62640000      -0.03412950       0.00211883      -0.02905130
H       19.53578000       4.19681000      15.85420000       0.01706880      -0.00564769       0.00281745
O        1.26124000       9.63626000      21.41549000       0.01980420      -0.05242430      -0.00889936
H        0.13094000       8.24366000      21.94096000       0.00492157       0.01551410      -0.00652454
H        2.75284000       8.53146000      20.55120000      -0.02842050       0.03873030       0.01360850
O       22.96520000       5.13897000      21.45334000      -0.25579400       0.13817000       0.02114720
H       21.83790000       4.81407000      22.90824000       0.02709500      -0.00851436      -0.00313920
H       24.30770000       4.44412000      21.20474000       0.22849000      -0.13199600      -0.02308360
O       15.27560000       2.31364000      24.03494000      -0.00981215      -0.07778770      -0.04233710
H       17.02610000       2.00654000      24.34824000       0.01856200       0.02590020       0.01211870
H       15.06580000       0.38014000      23.37894000      -0.01247750       0.04739890       0.01522820
O        7.92046000      10.75700000      21.81500000      -0.04244920      -0.01532180       0.07885040
H        9.56066000      10.88080000      21.13220000       0.03669140      -0.00218219       0.00149474
H        7.82246000      10.23680000      23.79940000       0.02135160       0.01946690      -0.06523820
