192
TotEnergy=-1103.64116000 cutoff=-1.00000000 nneightol=1.20000000 pbc="T T T" Lattice="22.67244000       0.00000000       0.00000000      -0.00000100      22.67244000       0.00000000      -0.00000100      -0.00000100      22.67244000" Properties=species:S:1:pos:R:3:force:R:3:Z:I:1
O               7.08575000      3.59111000     21.98770000     -0.00237100     -0.00715222     -0.00630233       8
H               6.40700000      1.86815000     21.94680000     -0.00407632     -0.00531575      0.00532486       1
H               5.66271000      4.63719000     22.39440000      0.00367663      0.00124131     -0.00003082       1
O              14.56460000      1.63941000      3.16823000      0.00352279     -0.00519919     -0.00362312       8
H              14.69130000      0.74724100      4.76079000      0.00069186     -0.00879065      0.00032196       1
H              16.24330000      1.60248000      2.41771000     -0.00113554      0.00375978      0.00265760       1
O              18.88550000     18.89410000      2.35818000     -0.00383424     -0.00013515      0.00334642       8
H              19.32240000     18.63240000      0.63239500      0.00179182      0.00318457     -0.00402602       1
H              17.19220000     19.56340000      2.31817000      0.00222112      0.00284771     -0.00155867       1
O               2.44688000      7.04951000      2.67013000     -0.00412441      0.00246999      0.00152671       8
H               3.70218000      6.63950000      3.92229000      0.00304540      0.00507054      0.00004947       1
H               1.76404000      8.60291000      3.32750000     -0.00469583     -0.00193851      0.00202072       1
O               1.51428000      4.71937000     18.03160000      0.00454835     -0.00187002     -0.00069776       8
H               1.94492000      3.38769000     16.88310000      0.00814864     -0.00052208      0.00014579       1
H               1.84367000      4.04560000     19.68550000     -0.00598457     -0.00526870      0.00325151       1
O              21.87520000     12.74990000      4.42264000     -0.00266429      0.00150771     -0.00111739       8
H              23.37690000     13.63740000      3.86754000      0.00332293     -0.00053658      0.00955521       1
H              20.94250000     12.52370000      2.87134000      0.00300503     -0.00028884     -0.00242589       1
O               2.24660000     14.09610000     10.07130000     -0.00069879      0.00400120     -0.00316759       8
H               0.81532700     13.43790000     11.01810000     -0.00210325      0.00003578     -0.00400243       1
H               2.87107000     15.53060000     11.01960000     -0.00378813      0.00144360      0.00345233       1
O               5.79044000      8.08881000     14.31090000     -0.01274360     -0.00509884     -0.01212580       8
H               4.71087000      8.72342000     15.60570000     -0.00352734      0.00390346      0.00202129       1
H               7.49069000      8.17790000     14.94370000      0.01087130     -0.00081319      0.00556068       1
O               3.96147000     14.57390000      0.22845200      0.00630695     -0.00436433      0.00808937       8
H               4.62573000     12.90400000     -0.06655400     -0.00162576     -0.00184844     -0.00280650       1
H               5.30226000     15.66270000      0.79291000      0.00016367     -0.00128508      0.00439935       1
O              18.39610000     11.35680000      8.08274000      0.00690776     -0.00972364     -0.00656456       8
H              19.83320000     11.64960000      6.97661000      0.00011891      0.00263280      0.00195356       1
H              17.10710000     10.74580000      6.91823000     -0.00254139      0.00434404      0.00402329       1
O              13.02570000     12.80860000     20.36630000     -0.00221471     -0.00247760     -0.00391023       8
H              13.51130000     12.06460000     18.77050000      0.00507953      0.00620330      0.00023769       1
H              11.27180000     12.26850000     20.61060000      0.00635454      0.00020388     -0.00022874       1
O               8.67220000     11.05990000     21.84390000     -0.00032946     -0.00356203      0.00100159       8
H               8.70246000     10.83380000     23.68370000      0.00281075      0.00962247     -0.00441549       1
H               7.24257000     10.07150000     21.20790000     -0.00288709     -0.00084346      0.00587954       1
O              12.37700000      6.02280000      2.75514000      0.00434779      0.00488688      0.00259634       8
H              13.16770000      4.45911000      3.38221000     -0.00010453      0.00277490      0.00286754       1
H              13.64940000      6.50444000      1.55928000     -0.00028621      0.00296267     -0.00267870       1
O               4.57847000      8.64622000     21.21820000      0.00672914      0.00257091     -0.00213028       8
H               3.75691000      8.32668000     19.65000000     -0.00970100      0.00222909     -0.00487004       1
H               3.50309000      8.12033000     22.61870000     -0.00191399     -0.00310818      0.00425251       1
O              10.40910000      8.24931000     15.65610000      0.00553061      0.00213099     -0.00205512       8
H              11.07530000      7.29992000     17.07260000     -0.00185095     -0.00248496      0.00009742       1
H              11.05690000      7.53556000     14.09510000      0.00897160     -0.00507667     -0.00407583       1
O              10.90100000     16.53970000     11.17070000      0.00348268      0.00013756      0.00325212       8
H              11.32390000     14.86310000     11.74910000     -0.00847791      0.00072149     -0.00240073       1
H              11.33170000     16.40730000      9.41263000      0.00317989      0.00426737     -0.00251923       1
O               3.71462000      4.32326000     11.33870000     -0.00124034      0.00358752      0.00170428       8
H               2.64174000      5.76840000     11.10640000     -0.00114524     -0.00031242     -0.00311418       1
H               5.13454000      5.01810000     12.27100000     -0.00158195     -0.00042801     -0.00119853       1
O              11.26410000     17.64870000     16.50130000     -0.00349062     -0.01350060     -0.01181220       8
H              10.16010000     17.02410000     17.72350000     -0.01705370     -0.01906400      0.02509880       1
H              12.44630000     16.45540000     15.82590000      0.01435110     -0.00888029     -0.00958706       1
O              21.02560000      7.17773000     15.27430000     -0.00335593      0.00567658      0.00579536       8
H              20.55800000      6.46234000     13.68800000      0.00241584     -0.00512675     -0.00762135       1
H              21.77700000      5.85732000     16.29330000     -0.00120381      0.00051875      0.00481985       1
O               4.54781000     21.45670000     21.66390000     -0.00207089      0.00655788     -0.00620875       8
H               3.22795000     16.32490000     18.63420000      0.02217340     -0.00345442     -0.02428210       1
H               4.51678000     20.68880000     23.31690000      0.00524199      0.00041366     -0.00599882       1
O               9.20466000      3.87654000     10.76570000     -0.00871913     -0.00120113      0.00534541       8
H               9.41119000      2.07072000     10.86950000      0.00412052     -0.00195947      0.00413547       1
H               8.50830000      3.99054000      9.08158000      0.00630603      0.00290008      0.00505830       1
O               2.87355000     18.09110000     12.98980000      0.00056155     -0.00321506      0.00014350       8
H               3.22676000     19.86760000     12.65600000      0.00465897      0.00200710      0.00172590       1
H               2.69892000     18.18270000     14.77800000     -0.00600503     -0.00346532      0.00320736       1
O              13.05480000     12.57770000     15.19760000     -0.00047844      0.00995308     -0.00554099       8
H              12.22140000     10.95180000     14.94300000     -0.00265076      0.00609423      0.00254596       1
H              14.22750000     12.81670000     13.82290000     -0.00176304      0.00189310     -0.00520873       1
O              19.98240000      2.36980000      1.74970000     -0.00307762     -0.00101480      0.00270619       8
H              21.14900000      1.50275000      0.51697000     -0.00211876      0.00217064     -0.00402311       1
H              20.47480000      1.60034000      3.31905000     -0.00194260     -0.00084910      0.00471789       1
O              10.64060000     21.22120000      1.37639000      0.00163347      0.01126570      0.00149797       8
H              11.51650000     22.82660000      1.46739000     -0.00019465     -0.00259522      0.00186009       1
H              10.32970000     20.85370000      3.19731000     -0.00372239     -0.00388256     -0.01142880       1
O              16.45320000     15.01070000     11.82510000      0.00196959      0.00116735      0.00163040       8
H              15.74970000     15.83590000     10.34660000      0.00414899     -0.00486707      0.00486468       1
H              17.91940000     14.09880000     11.23500000     -0.00891414      0.00948833     -0.00380656       1
O               0.23687400     22.92660000     21.30620000     -0.00077427      0.00132128     -0.00330156       8
H               2.41744000     22.14850000     21.43880000      0.00883255     -0.00121406     -0.00432291       1
H              -0.27480200     23.48560000     19.66980000     -0.00076714     -0.00595042     -0.00155171       1
O               8.35568000      3.41192000      5.75750000     -0.00244351      0.00172033     -0.00165881       8
H               9.16787000      3.20132000      4.15913000      0.00045229      0.00159140     -0.00182236       1
H               7.88237000      5.18654000      5.84064000      0.00088635     -0.00142060     -0.00389225       1
O              20.95540000     20.20020000     10.70010000     -0.00447613     -0.00432218      0.00073860       8
H              22.28250000     18.95630000     10.83910000     -0.00145195      0.00541729      0.00411375       1
H              19.62780000     19.22720000      9.88642000      0.00417584      0.00048204     -0.00463645       1
O              19.34480000     17.15960000      6.95843000     -0.00241501     -0.01033530     -0.00412294       8
H              18.95750000     17.82270000      5.28098000      0.00575733      0.00509763      0.00513890       1
H              19.98010000     15.52420000      6.47879000      0.00237717      0.00038131      0.00669358       1
O              18.47820000     19.76940000     15.78970000     -0.00828391     -0.00496409      0.00689782       8
H              17.46230000     19.75420000     14.28340000      0.00735330     -0.00350099     -0.00033652       1
H              18.12720000     21.38980000     16.55480000      0.00435677      0.00043837     -0.00159211       1
O              11.33780000      6.58444000     20.36540000     -0.00247730      0.00121531      0.00003892       8
H              10.47090000      8.11030000     20.91280000      0.00427480     -0.00150778      0.00074774       1
H              10.73420000      5.32134000     21.54030000     -0.00304683      0.00085507     -0.00347197       1
O              17.85500000     10.77780000     16.86460000      0.00802275      0.00672534      0.00083992       8
H              18.72230000      9.27538000     16.23590000      0.00572236      0.00117215      0.00335436       1
H              17.52740000     11.68200000     15.33150000     -0.00257973      0.00142444      0.00133828       1
O              16.87770000      2.19393000     15.99070000      0.00685645     -0.00246813      0.00022276       8
H              15.14200000      1.64292000     15.98040000     -0.00353431      0.01019910     -0.00386122       1
H              17.02870000      3.50166000     17.25150000     -0.00245269      0.00818999      0.00436070       1
O              21.02540000     11.57530000     12.31410000      0.00250438     -0.00009285     -0.00177859       8
H              22.18560000     10.17270000     12.29470000     -0.00311290     -0.00144030      0.00250397       1
H              19.88830000     11.11610000     10.93210000      0.00222155      0.00305268      0.00038797       1
O               6.83600000      2.69996000     16.33970000      0.00829470     -0.00086710     -0.00166278       8
H               8.37746000      2.90365000     15.40230000     -0.00419141      0.00986918      0.00105593       1
H               7.05318000      3.29707000     18.04260000      0.00406845      0.00204015      0.00613158       1
O              14.07990000      2.15214000      9.20887000     -0.01148810      0.02550920     -0.00474249       8
H              13.05610000      0.74792700      8.80455000     -0.00454495     -0.01999540     -0.00558574       1
H              15.46430000      1.50951000     10.09040000      0.02160030     -0.01462730      0.00884460       1
O              12.07850000     15.31450000      2.03151000     -0.00044122     -0.00434761     -0.01198390       8
H              13.32770000     16.61920000      2.05594000     -0.00051105      0.00126996      0.01269350       1
H              12.63870000     14.09980000      0.75495000      0.00006278      0.01245260      0.00928995       1
O              13.25800000      6.99163000     11.41530000      0.00173499     -0.00252546      0.00260504       8
H              15.02510000      6.84755000     11.76430000     -0.00039401      0.00046062      0.00063235       1
H              12.76560000      5.34697000     10.74190000     -0.00133777      0.00223084     -0.00018728       1
O              22.03040000      6.99621000      9.84144000     -0.00566982      0.00113146     -0.00423846       8
H              20.59660000      7.58161000      8.87171000      0.00727914      0.00162768     -0.00439378       1
H              21.55890000      5.25342000     10.08190000     -0.00149182     -0.00302604     -0.00012003       1
O               8.78307000     20.65250000     18.75560000      0.00137212     -0.00197061      0.00352144       8
H               6.98802000     20.62570000     18.53820000     -0.00914209      0.00700737      0.00557810       1
H               8.94762000     20.79600000     20.56790000      0.00245336      0.00320443      0.00850259       1
O               4.01796000     15.03810000      5.31336000     -0.00747474      0.00154700      0.00566743       8
H               3.25672000     14.64440000      6.94596000      0.00350036      0.00045795     -0.00469528       1
H               3.78640000     16.85740000      5.10656000      0.00816283     -0.00484894      0.00028111       1
O               8.89799000     19.97390000      5.87686000      0.00187742     -0.00353546      0.00104977       8
H              10.24550000     18.74690000      6.13224000      0.00899504      0.01043460      0.00192762       1
H               9.11250000     21.20170000      7.20363000      0.00185125     -0.00447229      0.00084358       1
O              21.54550000     11.08620000     22.36840000      0.01039420      0.01596780     -0.00852053       8
H              20.98910000      9.62821000     23.31490000     -0.00885757     -0.01661090      0.00410913       1
H              20.36320000     11.19980000     21.02100000     -0.00513474      0.00053252     -0.00526090       1
O              20.93650000      1.01748000      6.97214000      0.01536280     -0.00596534      0.00371858       8
H              20.99880000     -0.37411000      8.19860000     -0.00545188      0.00375997     -0.00928247       1
H              22.72140000      1.49871000      6.84873000     -0.00706133      0.00285721     -0.00436914       1
O              14.07670000     19.51720000      6.58311000     -0.00510880     -0.00012501     -0.00149998       8
H              11.28930000     19.47190000     16.72140000      0.01075000      0.00949030     -0.01398970       1
H              15.54820000     18.47680000      6.79263000     -0.00575683      0.00364517      0.00069128       1
O              19.26200000      3.06576000     11.70990000     -0.00262468      0.00030335     -0.00202980       8
H              18.03560000      2.93709000     13.07690000      0.00688770     -0.00290679      0.00755392       1
H              20.09460000      1.44831000     11.64910000     -0.00269429     -0.00057994     -0.00011582       1
O               4.09938000     -0.04715000     13.61000000     -0.00715306     -0.00121502      0.00101206       8
H               5.21621000      0.66757300     14.90470000     -0.00399095      0.00159853     -0.00162610       1
H               3.28163000      1.42258000     12.87470000      0.00630645      0.00444031     -0.00530154       1
O              20.56610000     15.25140000     18.09690000      0.00818401      0.00650921      0.00903660       8
H              19.50170000     16.60970000     17.51980000     -0.00643988      0.00388962     -0.01006980       1
H              19.89390000     13.61520000     17.63520000     -0.00634088     -0.00258574     -0.00259804       1
O              19.08810000      7.43488000      1.91507000      0.00163578     -0.00130056      0.00291684       8
H              19.62460000      5.65514000      1.73298000     -0.00247596      0.00092759     -0.00488354       1
H              18.68870000      7.44460000      3.69362000     -0.00186843     -0.00208921      0.00160386       1
O               6.23763000     11.08360000     10.32520000      0.00131727      0.00032710     -0.00275637       8
H               4.95508000     12.31890000      9.89522000      0.00074872     -0.00158467      0.00257059       1
H               5.62564000     10.34160000     11.90280000      0.00992376     -0.00614411     -0.00569777       1
O               1.98915000     16.92170000     19.73880000     -0.03337870      0.00163640      0.01155200       8
H               0.26002000     16.33050000     19.04060000      0.00104315     -0.00405274      0.00129288       1
H               2.49679000     15.75940000     21.38690000      0.00601922      0.00516547     -0.00412420       1
O              17.88660000      5.16133000      6.32471000      0.00223117      0.00168097      0.00693438       8
H              18.72430000      3.53150000      6.18980000      0.00220975      0.00495936      0.00114801       1
H              17.19830000      5.02570000      7.99076000     -0.00723627      0.00099904     -0.00219265       1
O              16.37040000      6.35827000     19.29740000      0.00512771     -0.05157100     -0.01176340       8
H              14.69740000      6.50359000     19.88030000     -0.02785630     -0.00127943      0.00708272       1
H              17.03060000      7.93860000     19.52050000      0.02206780      0.04463500      0.00485713       1
O               4.26623000     20.00640000      4.02397000     -0.06365490     -0.01761530     -0.01573190       8
H               2.78224000     21.10550000      3.88405000      0.01697860     -0.00880612      0.00476047       1
H               5.64086000     21.03990000      4.30244000      0.03667870      0.02332350      0.01328660       1
O               8.81955000     12.17270000      4.15418000     -0.00565805     -0.00246893     -0.00149821       8
H               7.31260000     13.20640000      4.14630000      0.00008797      0.00132633      0.01061520       1
H              10.21810000     13.35630000      4.23948000      0.00140332     -0.00055192     -0.00468928       1
O               6.21307000      8.19968000      6.13668000      0.00247742     -0.01311600     -0.00495912       8
H               6.34083000      9.25715000      7.65668000     -0.00391516      0.00002779      0.00596607       1
H               7.34756000      8.95159000      4.93582000      0.00169508      0.00736521      0.00417856       1
O               2.27221000     10.54230000     16.81860000     -0.00522431     -0.00005131     -0.00037750       8
H               1.71771000     12.18790000     17.28430000     -0.00457762      0.00001647      0.00027652       1
H               0.79985800      9.60876000     16.25770000     -0.00290907      0.00102020     -0.00027890       1
O              14.82900000     10.98950000      4.41007000     -0.00918600     -0.01078730      0.00418978       8
H              15.79230000     10.86250000      2.89015000      0.00134066     -0.00079658     -0.00503806       1
H              13.60820000      9.61566000      4.30518000      0.00695430      0.00088451     -0.00202008       1
O              12.57460000     22.45660000     15.83420000     -0.00570266     -0.00421888     -0.00668992       8
H              10.89690000     22.73520000     16.51630000      0.00496893      0.00239932      0.00606307       1
H              13.58390000     21.70720000     17.13350000      0.00167433      0.00112414      0.01545940       1
O              14.92780000     19.85300000     21.66400000     -0.01498520      0.00352747      0.00227111       8
H              13.49570000     20.37220000     22.76470000      0.00659880     -0.00133816     -0.00756874       1
H              14.68940000     18.06480000     21.62530000      0.00213651     -0.00577046     -0.00754214       1
O               8.80642000     21.36900000     11.14820000     -0.00200679     -0.00172690      0.00140472       8
H               7.14237000     21.40830000     11.87060000     -0.00467707      0.00373378     -0.00157480       1
H               9.25116000     19.59730000     11.08690000      0.00752472     -0.00226510      0.00299182       1
O              11.84990000     11.94450000      9.18189000     -0.00185036      0.00035079      0.00075354       8
H              10.49190000     10.79720000      8.81868000      0.00075182      0.00386478      0.00319754       1
H              13.16820000     11.55930000      8.01953000      0.00184027     -0.00034430     -0.00132711       1
O               3.27764000      1.97743000      6.32908000     -0.00436591      0.00319459      0.00202965       8
H               3.93098000      1.28824000      7.86681000      0.00437897     -0.00117157      0.00235224       1
H               3.83954000      3.69876000      6.44374000     -0.00123522     -0.00273795     -0.00015831       1
