192
TotEnergy=-1103.34454000 cutoff=-1.00000000 nneightol=1.20000000 pbc="T T T" Lattice="24.50705000       0.00000000       0.00000000      -0.00000100      24.50705000       0.00000000      -0.00000100      -0.00000100      24.50705000" Properties=species:S:1:pos:R:3:force:R:3:Z:I:1
O              19.53060000      2.91888000    -32.55560000     -0.00854791     -0.01909690     -0.02881600       8
H              19.52380000      3.51379000    -30.82430000     -0.00548104     -0.01712740      0.00016589       1
H              18.55960000      1.33705000    -33.09760000      0.01059810      0.02377050      0.03351120       1
O              47.98460000     45.42660000     10.17090000     -0.01688840     -0.00483169     -0.06774340       8
H              49.28250000     43.98540000     10.32940000     -0.02514310      0.02461940     -0.01200100       1
H              47.17120000     45.74710000      8.24819000      0.04149730     -0.02552260      0.07298640       1
O              13.56200000     -1.10949000     19.47970000      0.01201540     -0.02614200     -0.04074280       8
H              12.30110000     -2.46145000     19.12620000      0.01396310      0.01752170     -0.00040207       1
H              15.04550000     -1.45535000     18.27980000     -0.03324370      0.01052680      0.02379810       1
O              -3.87393000     -9.56601000     -0.14105200      0.00331845      0.04690400      0.03278820       8
H              -3.65971000     -7.59105000     -0.26157500     -0.00558995     -0.05239010     -0.00046584       1
H              -4.06138000     -9.81266000      1.74201000      0.00220864      0.00657496     -0.03051930       1
O               4.47476000     33.55300000     21.03710000      0.04218940      0.06190670     -0.01394950       8
H               5.90271000     34.95400000     20.70660000     -0.04362190     -0.04182030     -0.00444125       1
H               5.47693000     32.33800000     21.88620000     -0.00020475     -0.02042240      0.00587785       1
O              -0.91694400     13.60440000      8.63811000     -0.06282900     -0.08164840     -0.07266090       8
H               0.14643400     12.25900000      7.86386000     -0.01669440      0.00763342      0.00886823       1
H               0.16657300     14.57370000      9.43990000      0.07168740      0.07086570      0.06451130       1
O              37.69390000     23.44020000     11.00630000     -0.01806330     -0.04342360     -0.01245260       8
H              38.08260000     23.50580000      9.05939000      0.00241775     -0.00338303      0.04303290       1
H              36.89820000     21.68460000     11.50340000      0.02080690      0.04727070     -0.01470560       1
O              -0.21544200    -24.61540000     13.73340000     -0.06157470      0.02277100     -0.03665820       8
H              -0.33349800    -25.08500000     11.92910000      0.02050650     -0.01502630      0.01441680       1
H              -2.02505000    -23.96860000     13.66650000      0.04024730     -0.00672875      0.02484930       1
O              32.68220000    -36.82690000     19.01550000      0.03854450      0.01427780      0.02955200       8
H              34.07180000    -37.99820000     18.46040000     -0.02606980      0.01515260      0.01237390       1
H              33.59580000    -35.54980000     20.37220000     -0.01881360     -0.03381260     -0.03797120       1
O               9.12767000    -27.31500000    -22.25680000      0.06266700      0.01822010     -0.01005820       8
H              11.10170000    -26.77640000    -22.71880000     -0.07994490     -0.01156840      0.01150320       1
H               8.30692000    -25.92350000    -21.32170000      0.02177040     -0.01022860     -0.00823918       1
O             -12.72520000      3.88796000      4.85560000      0.05547960      0.02377240     -0.02654080       8
H             -14.34690000      3.16728000      4.89946000     -0.03310490     -0.01569370     -0.00938558       1
H             -12.15850000      4.25221000      3.05939000     -0.01447080     -0.00967391      0.03686530       1
O             -10.74940000     34.55380000     50.92400000     -0.01655810      0.00732581     -0.03819250       8
H             -10.02910000     34.85560000     49.22040000      0.00020040     -0.00280498      0.02444410       1
H             -12.58030000     34.83180000     50.66510000      0.02250150     -0.00337365      0.01619290       1
O              15.90670000    -29.54380000    -20.53580000      0.06081050     -0.00354503      0.01446690       8
H              17.29560000    -30.70580000    -19.94080000     -0.01486620      0.02540620     -0.00992287       1
H              14.55230000    -30.66070000    -20.49140000     -0.03775180     -0.01883360     -0.00642908       1
O              26.25880000     16.81600000     36.25740000      0.10499900      0.01860260     -0.00140431       8
H              28.29300000     17.04370000     35.88220000     -0.06881290     -0.01403850     -0.00907756       1
H              26.72740000     16.97030000     38.06980000     -0.03736070      0.00013900     -0.00841476       1
O              -2.95365000      3.76167000     -2.96854000      0.06961470     -0.02563760     -0.03644300       8
H              -1.55314000      4.88596000     -3.81503000     -0.03599700     -0.01813790      0.01968690       1
H              -1.95801000      2.09705000     -3.15189000     -0.03269530      0.04176840      0.01234880       1
O             -28.08430000     22.06750000     29.47330000      0.06494520      0.02489110     -0.00957965       8
H             -29.51410000     22.38690000     30.52110000      0.00124671      0.01757770      0.00056767       1
H             -26.62980000     23.56390000     29.34690000     -0.05743070     -0.03255770      0.01959770       1
O             -31.58690000     11.38060000     22.27370000      0.01873400      0.05879480     -0.02518900       8
H             -32.11660000     12.00420000     20.42950000      0.00971970     -0.02297700      0.04989830       1
H             -30.54360000     12.95030000     22.96360000     -0.02550320     -0.04291100     -0.01566250       1
O             -15.37590000     60.64020000    -21.00630000     -0.03014630      0.00847454      0.06276530       8
H             -15.91950000     60.93440000    -19.06400000      0.02746120     -0.00871298     -0.05920980       1
H             -16.73930000     59.50860000    -21.49830000     -0.00203771      0.00424869     -0.00305652       1
O              65.88330000     23.25580000     39.61950000     -0.07777860      0.03762700     -0.03209320       8
H              64.26300000     23.54340000     38.22700000      0.06749960     -0.01826490      0.03968730       1
H              66.90840000     21.88210000     39.13310000      0.00992042     -0.01896890     -0.01411650       1
O              56.43240000    -22.97260000      4.91317000      0.19406000     -0.09283360      0.25145900       8
H              55.65350000    -24.11570000      6.28342000      0.01011400      0.04101350     -0.03360920       1
H              55.45640000    -22.70230000      3.80041000     -0.20934100      0.06144920     -0.22366200       1
O              31.72920000     17.02220000    -14.02680000     -0.01970560     -0.06533630     -0.06742450       8
H              32.54630000     15.31690000    -14.91250000     -0.03735580      0.03278870      0.02535350       1
H              33.12890000     17.39460000    -13.08530000      0.04666720      0.02899880      0.03657350       1
O             -10.98900000      7.40204000     62.12860000     -0.07762560     -0.05524350     -0.03565480       8
H             -11.93140000      5.74638000     61.21000000      0.02063060      0.05914550      0.03065580       1
H              -9.34610000      6.90331000     61.82550000      0.05478530     -0.01199100     -0.00061160       1
O               6.43912000      4.12979000     -3.20645000     -0.00227319     -0.02758660     -0.05630450       8
H               8.36256000      4.00864000     -3.17471000     -0.03058890     -0.00987179     -0.01158530       1
H               5.69073000      3.23429000     -4.81965000      0.03344360      0.02980760      0.05212560       1
O              43.37410000      6.85928000     24.65440000      0.00425717      0.08472300     -0.04335970       8
H              43.12050000      8.83057000     23.46760000     -0.00228050     -0.06528550      0.03926250       1
H              44.83350000      6.16360000     23.75830000     -0.01450100     -0.00835244      0.00651379       1
O               1.36497000     57.99960000     31.52620000     -0.01296280      0.00853524     -0.01252360       8
H              -0.30891000     57.32690000     31.13880000      0.00899013      0.00372653     -0.00239055       1
H               2.18051000     58.35450000     29.89020000     -0.00043651     -0.01231560      0.01236770       1
O               8.79972000     36.87860000      8.93950000      0.01927530     -0.05291390      0.05957730       8
H               7.84584000     35.46670000     10.18750000      0.02185130      0.05795180     -0.05320920       1
H              10.72450000     36.71460000      9.46917000     -0.04611230      0.00174697     -0.01214060       1
O             -14.73950000     19.53330000     18.25700000     -0.01016240      0.07852390     -0.07856180       8
H             -16.42710000     19.94010000     17.53500000      0.01792890     -0.00013485      0.02667920       1
H             -14.86730000     18.12650000     19.16870000     -0.01105990     -0.07787710      0.05720800       1
O              28.96300000     33.50330000     51.52180000     -0.01529220      0.11170700      0.01707280       8
H              27.95130000     34.65460000     50.37130000      0.02100540     -0.05151790      0.01096310       1
H              29.31910000     31.82570000     51.33390000     -0.01229110     -0.06114240     -0.03103710       1
O              12.41040000     32.94280000     18.07290000     -0.00601981      0.09131270     -0.03354410       8
H              12.42830000     32.40330000     16.37210000      0.00499115     -0.00764039     -0.02823240       1
H              12.38480000     31.52410000     18.97520000     -0.00301235     -0.07967310      0.05649900       1
O               0.84610300    -24.89820000     24.21100000      0.08114090      0.03128340     -0.02446640       8
H              -0.76006100    -25.04350000     24.59470000     -0.11089200     -0.00048681      0.02919520       1
H               1.28467000    -26.54290000     23.73710000      0.02295320     -0.02429330     -0.00216962       1
O               4.87480000     15.52240000     -0.78536200     -0.02900460      0.02942240      0.01096490       8
H               6.19398000     14.41650000     -1.16199000      0.01159860     -0.02019170     -0.00254594       1
H               3.21713000     14.71290000     -0.70877300      0.01282070     -0.01481050     -0.00655881       1
O               2.73704000      2.51954000     16.78730000      0.02307430      0.00699049      0.00287269       8
H               1.70188000      1.91178000     15.41850000     -0.01225410     -0.00783937     -0.00115656       1
H               1.96217000      4.04747000     17.44010000     -0.00786720     -0.00348705     -0.00249883       1
O             -37.50680000     52.65850000    -28.38630000     -0.00944311      0.04982090      0.03355080       8
H             -36.59690000     51.27310000    -28.92120000      0.01688620     -0.04542300     -0.02693790       1
H             -36.50090000     53.04380000    -26.84530000     -0.00693426     -0.00160698     -0.00463792       1
O               4.04781000     49.46500000    -16.30860000     -0.02837070     -0.02730740      0.04722050       8
H               3.79196000     50.24160000    -14.58730000      0.01150110     -0.01330180     -0.03504790       1
H               3.45074000     47.65590000    -16.18660000      0.01316990      0.02947840     -0.00324402       1
O             -32.44130000     35.71540000      6.33857000      0.07404240     -0.00880801      0.04771320       8
H             -33.70170000     35.46970000      5.12422000     -0.01058620     -0.02344500     -0.03396950       1
H             -30.88260000     34.36900000      6.48590000     -0.05767120      0.03549110     -0.02648720       1
O              19.79760000     35.85890000     11.90890000     -0.03330650      0.01949470     -0.00573301       8
H              18.02250000     36.56970000     12.06020000      0.05105900     -0.01974130     -0.00827298       1
H              20.74390000     36.72240000     10.52960000     -0.01119390     -0.00803593      0.01933140       1
O             -13.64750000    -21.02870000     10.29100000     -0.01186280     -0.00002667      0.05607290       8
H             -13.46410000    -19.99990000      8.82304000      0.01807500     -0.02104130     -0.01683200       1
H             -12.82650000    -22.67130000     10.86740000     -0.00339253      0.02300150     -0.03655370       1
O             -48.78040000      6.64649000     18.87640000      0.03057290     -0.02556980      0.02294570       8
H             -49.62500000      7.57323000     17.63100000     -0.01291070      0.02879370     -0.02439190       1
H             -47.10190000      7.39243000     19.06740000     -0.00922366      0.00580145      0.00724542       1
O             -19.67520000    -15.21520000     35.57250000     -0.00539063     -0.07872310     -0.01354760       8
H             -19.00060000    -17.24580000     35.40630000     -0.03684640      0.07542070      0.01916900       1
H             -21.47840000    -15.36960000     34.91840000      0.04613320      0.00529287      0.00466692       1
O              19.65230000     15.51950000     29.82980000      0.07701400      0.07210830     -0.01742440       8
H              21.08750000     15.27240000     30.99210000     -0.00962933      0.00004336     -0.01026840       1
H              18.51210000     14.35780000     30.24510000     -0.06709280     -0.07627540      0.02394920       1
O             -19.74310000     -3.23725000     43.30050000     -0.02259350      0.01260470      0.01178480       8
H             -20.38560000     -3.28017000     45.04690000      0.01942910     -0.00930328     -0.00240564       1
H             -20.60990000     -1.73456000     42.72150000      0.00573065     -0.00179228     -0.00890054       1
O              43.93620000      3.66482000     32.97890000      0.03959500     -0.02137520     -0.04623950       8
H              43.71050000      4.71124000     34.41350000     -0.01527340      0.01270440      0.02205100       1
H              42.46630000      3.08529000     32.16720000     -0.02041800     -0.00654272      0.00136153       1
O              -8.28657000    -33.29530000    -10.71280000      0.03511780      0.03872190     -0.03755280       8
H              -7.02694000    -31.58030000    -10.72250000     -0.03260360     -0.06768970     -0.01327310       1
H              -8.11378000    -34.21400000    -12.41420000     -0.00849009      0.03490780      0.04869060       1
O              54.63440000    -20.23530000    -12.39790000     -0.06191900     -0.00328217      0.03575060       8
H              56.25540000    -20.67660000    -12.94260000      0.03440740     -0.02238780      0.00545419       1
H              53.87510000    -20.98360000    -10.74550000      0.03581230      0.02084080     -0.03996410       1
O              15.10210000      0.07404500      6.43157000      0.01810230     -0.03380280     -0.00002506       8
H              13.91430000      1.30419000      5.82527000     -0.01194730      0.00966876     -0.01691460       1
H              15.40600000     -1.32881000      5.21337000     -0.01352770      0.02303810      0.01358120       1
O             -38.12770000     -9.30094000     46.17170000      0.03916660      0.00521768     -0.01832840       8
H             -36.52970000     -9.57963000     44.92460000     -0.04142030      0.01008700      0.05726380       1
H             -37.91660000     -8.58876000     47.97600000      0.01468960     -0.00946164     -0.04559950       1
O               3.97188000    -12.10250000     -9.11196000      0.00510140      0.07014010      0.09023740       8
H               5.23047000    -11.90040000     -7.61783000     -0.02375890     -0.02638260     -0.05249270       1
H               4.24781000    -13.36660000    -10.26040000      0.02574820     -0.04502730     -0.03458850       1
O              19.99510000     19.06060000     13.69410000     -0.03983120     -0.00043495      0.02564740       8
H              21.28700000     19.42400000     12.56130000      0.03032220      0.02074960     -0.04734050       1
H              20.89630000     18.19480000     14.94680000      0.01145660     -0.01392330      0.02660800       1
O              11.76030000     18.70150000    -11.19550000     -0.07452630      0.01074620      0.05882860       8
H              13.14040000     17.61630000    -10.90280000      0.02280490     -0.01959570      0.00333685       1
H              10.58660000     18.54230000     -9.42331000      0.05652260      0.01328460     -0.06297350       1
O              24.23650000     50.75450000     30.07080000     -0.05613200      0.03588890      0.03380000       8
H              23.39060000     51.81330000     31.46670000      0.00243140     -0.02650310     -0.04540980       1
H              25.73060000     50.51630000     30.98360000      0.04493390     -0.01555290      0.00411105       1
O              -4.02824000      7.91292000      5.30867000      0.00432507      0.00318249      0.04101580       8
H              -4.53186000      6.22230000      5.75375000      0.00175736     -0.00491275      0.00915145       1
H              -4.12740000      7.93329000      3.55157000     -0.00721584      0.00128591     -0.04499090       1
O              13.76200000    -26.24840000     24.22990000     -0.07504420      0.12642700      0.00683287       8
H              14.58230000    -27.65190000     24.52210000      0.05523990     -0.09666940     -0.00180442       1
H              13.26680000    -25.56890000     22.52540000      0.02709670     -0.03518200      0.01777480       1
O              -4.04454000     20.45100000     49.00350000     -0.06787640     -0.03334060      0.03470930       8
H              -5.99941000     19.93510000     49.18800000      0.07360960      0.02447630     -0.00740267       1
H              -3.62287000     20.52470000     50.86420000     -0.00780117      0.00771569     -0.02573080       1
O              36.29930000     41.27600000      2.13723000      0.12497900     -0.09006980     -0.05534140       8
H              34.93770000     42.02220000      2.59120000     -0.13475500      0.07776940      0.04560750       1
H              35.95340000     39.47190000      2.09653000      0.00088578      0.00453204      0.01564260       1
O              26.33500000     17.19750000    -32.30750000     -0.06187390     -0.10542300     -0.07091670       8
H              27.59710000     15.91000000    -32.54680000     -0.00906367     -0.01522380     -0.00017845       1
H              27.18890000     18.28050000    -31.45140000      0.07133910      0.11541000      0.08109820       1
O             -20.09690000     45.09220000     -0.29479100     -0.17780000     -0.13175000     -0.05540400       8
H             -20.29880000     43.02710000     -0.00357200      0.02820250      0.08080120     -0.01606040       1
H             -18.68340000     45.61840000      0.24701600      0.15651600      0.04822770      0.06226110       1
O               4.25728000    -29.30460000     31.13310000      0.09292280      0.01759410      0.15424100       8
H               5.55500000    -30.55160000     32.39970000     -0.05242110      0.05116320     -0.05534250       1
H               3.67572000    -30.14370000     29.83770000     -0.03616150     -0.06582320     -0.09096640       1
O               4.14068000     28.27420000      1.08438000      0.00701148     -0.02731550     -0.07530700       8
H               4.84844000     28.16480000     -0.96242600     -0.00857033      0.01274860      0.07404400       1
H               2.90303000     26.89540000      0.84946600      0.00675591      0.01604840      0.01535920       1
O             -10.70060000    -12.60900000     10.41470000     -0.01845060      0.02185250      0.02564120       8
H             -10.30300000    -14.32510000     10.76070000     -0.00495133     -0.01666210      0.00692642       1
H              -9.73565000    -12.21460000      8.97334000      0.01818820     -0.00281937     -0.03194190       1
O              -5.74031000      5.72527000     12.52660000     -0.03959580     -0.04649630     -0.00882367       8
H              -5.06396000      7.17410000     13.16350000      0.02628490      0.04706520      0.02314570       1
H              -5.82626000      4.38702000     13.85900000      0.01321740      0.02385500      0.00019412       1
O              25.55730000    -12.34460000     -1.03691000     -0.00495790      0.01230720      0.02313670       8
H              26.01770000    -13.35160000     -2.42445000      0.01025140     -0.01863570     -0.01870680       1
H              23.76940000    -12.11640000     -1.11021000     -0.00808246      0.00637297      0.00189215       1
O              23.48990000     10.71820000     40.60030000     -0.00279498     -0.02509530      0.02048710       8
H              21.91700000     10.95190000     39.72310000      0.01595490      0.02217940     -0.01061360       1
H              24.94420000     11.84170000     40.54490000     -0.01550100      0.00312071     -0.01554930       1
O              14.62190000     28.21640000     49.13540000      0.01813140     -0.02286490      0.01939420       8
H              15.85560000     29.65000000     49.35680000     -0.00025724     -0.02937850     -0.00383802       1
H              15.33280000     26.46180000     49.63180000     -0.01546510      0.05609540     -0.01675190       1
O              -9.46435000     13.19760000     18.17300000     -0.05868590     -0.04452290     -0.04564940       8
H              -8.92313000     14.11230000     16.62320000     -0.00185899     -0.00564260      0.01025310       1
H             -10.76870000     11.72070000     17.39350000      0.05936410      0.05309200      0.04101340       1
