192
Lattice="22.53905 0.0 0.0 0.0 22.53905 0.0 0.0 0.0 22.53905" Properties=species:S:1:pos:R:3:force:R:3 TotEnergy=-1103.47394 cutoff=-1.0 nneightol=1.2 pbc="T T T"
O       18.13810000      18.68580000      20.14620000      -0.00352183      -0.00153377      -0.00601806
H       16.32790000      18.77360000      20.31860000       0.00065079      -0.00042627       0.00465419
H       18.71120000      17.10280000      20.89060000      -0.00117600       0.00066751      -0.00209699
O       10.69590000      11.83490000       6.46561000      -0.00085070      -0.00005255       0.00622733
H        9.41466000      13.08240000       5.94176000       0.00384187      -0.00273664      -0.00120167
H        9.79824000      10.29790000       6.76678000      -0.00163412      -0.00198378      -0.00025256
O        9.96727000       1.63982000      13.67530000       0.00058282      -0.00396055       0.00250027
H        9.85326000       1.11578000      11.94220000      -0.00013490       0.00117369      -0.00048753
H        8.63090000       0.76604100      14.52880000      -0.00469054       0.00382738      -0.00289785
O        4.20255000      11.99220000      11.76520000      -0.00041611       0.00114971      -0.00001438
H        2.37217000      11.14110000      12.00950000       0.00116649       0.00358702       0.00406445
H        3.76131000      13.10790000      10.34330000       0.00445714      -0.00076611      -0.00026504
O        7.35137000      19.28550000      10.49540000      -0.00121920      -0.00055340      -0.00054212
H        8.42535000      17.79610000      10.38430000       0.00106392       0.00165920       0.00333421
H        6.78491000      19.21700000      12.22530000      -0.00341719      -0.00463392      -0.00160184
O       15.10830000       0.47325100       7.39227000       0.00108890       0.00114603       0.00124794
H       13.32470000       0.76821600       7.70193000       0.00061154      -0.00345830       0.00499647
H       16.01960000       0.42512200       8.98836000       0.00040193      -0.00249702      -0.00187721
O       15.21490000       7.57333000      19.25670000      -0.01207620       0.00332172       0.00641429
H       16.12510000       7.23653000      20.79080000      -0.00859488      -0.00177598      -0.00061999
H       17.39300000       7.51814000      17.81820000       0.01731830      -0.00436793      -0.01046840
O       20.15620000      14.04120000      19.68250000      -0.00193372       0.00059644       0.00023686
H       20.78360000      12.45040000      20.39860000      -0.00424570       0.00201533      -0.00206345
H       21.45080000      14.58680000      18.53860000      -0.00107961      -0.00069917       0.00030406
O       10.16630000      21.51440000       2.87292000      -0.00264165      -0.00056289      -0.00184239
H        8.47805000      20.91810000       2.48166000       0.00185027       0.00718569      -0.00023593
H       10.13930000      22.11580000       4.62502000      -0.00254111      -0.00640172      -0.00053030
O        0.03013200       3.82087000      12.05940000      -0.00255301       0.00242805       0.00159217
H        0.07396600       3.23758000      13.80070000      -0.00273798      -0.00047784      -0.00653763
H        0.01367900       2.37294000      10.97700000       0.00107345       0.00355524       0.00602082
O       15.20970000      14.22130000      13.04260000      -0.01147160      -0.00192559      -0.00094119
H       15.18980000      13.34860000      14.64700000      -0.00371162       0.00059764      -0.00232194
H       16.15650000      16.66980000      13.75610000       0.00079804       0.00759583       0.00067856
O        2.28835000       2.93018000      21.08160000      -0.00135488      -0.00322535      -0.00186019
H        2.76620000       3.05242000       0.29635000      -0.00132296       0.00340574      -0.00180219
H        2.97829000       4.44707000      20.24190000      -0.00120932      -0.00246384       0.00176015
O        4.63857000      16.66900000      14.42450000      -0.00494540      -0.00334470      -0.00355946
H        3.90129000      16.31040000      16.05360000       0.00569302      -0.00184408       0.00095783
H        4.29541000      15.13340000      13.44900000       0.00040573       0.00684167       0.00476290
O        4.77032000       3.71398000       2.94185000       0.00492336      -0.00244449       0.00350681
H        6.49901000       4.30454000       3.09028000       0.00447586       0.00714990      -0.00033074
H        4.09871000       4.00455000       4.63424000      -0.00516651      -0.00273425       0.00324931
O       16.17360000      17.81240000       8.61309000      -0.00344730      -0.00328075       0.00136991
H       16.23290000      18.31180000      10.38950000      -0.00171431       0.00205065      -0.00174245
H       15.35510000      19.14030000       7.67164000       0.00618532       0.00282535       0.00399716
O        6.26223000      11.67160000      18.67900000       0.00200462       0.00344647       0.01960240
H        5.27555000      13.04070000      19.43750000      -0.00374183      -0.00334226      -0.01524650
H        8.86353000      13.05710000      17.52180000      -0.00571394       0.00698184       0.00164415
O       14.98230000      12.54160000      18.42820000       0.00195245      -0.00143837      -0.00419594
H       16.59600000      13.40050000      18.55520000      -0.00067379      -0.00325149       0.00160966
H       15.36780000      10.69760000      18.52060000      -0.00683080       0.00138237       0.00793216
O        6.81708000      14.67460000       4.97504000      -0.00707486      -0.00513255      -0.00096738
H        6.25207000      12.97410000       4.50185000       0.00474872       0.01305440      -0.00448414
H        6.74253000      15.62480000       3.37438000       0.00546728      -0.00469268       0.00647104
O        2.45232000       8.62007000       2.08953000      -0.00295179      -0.00125930      -0.00261648
H        2.49490000       6.91220000       2.70991000       0.00003704       0.00048604       0.00045050
H        1.44794000       9.66043000       3.29734000       0.00152178      -0.00823531       0.00490187
O       21.54220000      19.39310000      16.81580000       0.00919321       0.00088691       0.00050055
H        0.44795000      20.02250000      17.76590000      -0.00084728      -0.00302712      -0.00242078
H       20.17250000      19.14760000      18.02630000      -0.00503899      -0.00517778      -0.00098255
O        9.96288000       0.15423400       7.76776000       0.00073043       0.00059717      -0.00113663
H        8.97757000       1.70932000       8.13332000       0.00091316       0.00324861       0.00008690
H        9.17903000      21.36268000       8.76081000      -0.00056310      -0.00008833       0.00086438
O        7.83862000       4.24743000       9.14216000      -0.00492771       0.00436564      -0.00258632
H        8.75940000       5.15235000      10.45460000      -0.00046720       0.00148417       0.00061005
H        6.11702000       4.32323000       9.71155000      -0.00478157      -0.00138678      -0.00062743
O       13.98090000       6.93575000       3.60029000       0.01792040       0.00027905       0.00554802
H       15.19620000       8.07586000       2.77268000      -0.00574927       0.00228053       0.00571212
H       15.32440000       5.86312000       4.69813000       0.00459986       0.00063588      -0.00291105
O       16.99350000       2.48278000      16.20080000      -0.00364328      -0.00668828       0.00858282
H       16.84120000       4.30261000      13.75770000       0.00344891      -0.00031476       0.00114945
H       18.67670000       3.02092000      16.85660000      -0.00926482      -0.00271498      -0.00553501
O       21.50320000       9.44649000      21.11510000       0.00474788      -0.00114980      -0.00264792
H       20.44400000       8.09193000      21.74650000      -0.00284923       0.00211342      -0.00125433
H        0.65565000       8.90804000      21.51540000      -0.00304915       0.00272778       0.00156812
O       13.82770000      18.82840000       0.43569600       0.01211040       0.01574180       0.00132881
H       12.41820000      19.83600000       1.06759000       0.00235923      -0.01654240       0.00098847
H       13.25260000      17.19400000      22.53053300      -0.01227310      -0.00743928       0.00065975
O        0.79783100      20.55880000      12.35260000       0.00344552      -0.00415207      -0.00078406
H        0.73278800      19.31110000      13.66490000      -0.00958148      -0.00123820       0.00759583
H        2.43484000      20.27900000      11.69320000       0.01103870       0.00066633      -0.01223740
O        6.69356000      10.40990000       2.38028000       0.00178739      -0.00260279       0.00084358
H        6.88595000      11.02170000       0.69689300       0.00059624       0.00414215       0.00474773
H        4.94169000       9.59306000       2.37398000      -0.00024165       0.00051313      -0.00523146
O        3.45706000      20.83660000      19.07280000       0.00139948       0.00080932      -0.00332784
H        4.76774000      21.18280000      17.87940000      -0.00136176      -0.00046326      -0.00093156
H        3.37170000      22.31860000      20.17790000      -0.00343346       0.00046617      -0.00199175
O        9.15279000       6.27246000       3.54686000      -0.00240756      -0.00322116      -0.00867118
H        9.99220000       5.72736000       2.03262000       0.00552443      -0.00209321       0.00186791
H        8.35572000       7.85839000       3.01282000      -0.00142859       0.00126990       0.00292191
O        0.46224600      10.53180000       6.01476000      -0.00065841      -0.00228342       0.00080944
H        1.07222000      11.98480000       6.93999000      -0.00248413      -0.00217690       0.00068260
H       21.16823000      10.52210000       6.10301000       0.00291907       0.00346892      -0.00098423
O        3.94753000       6.76845000      18.45970000      -0.00006901       0.00123983      -0.00116894
H        4.41938000       8.50829000      18.64930000      -0.00067698      -0.00041411      -0.00135439
H        3.76874000       6.53864000      16.63050000       0.00222984      -0.00155081      -0.00027331
O       18.33930000       5.82215000       0.56870000       0.00565845       0.00205679       0.00227222
H       18.59380000       4.09241000      22.53216800       0.00153378       0.00238595       0.00014854
H       18.93710000       5.95951000       2.27169000       0.00275443       0.00136187      -0.00412314
O       18.79540000      17.41920000       2.64640000      -0.00163781       0.00086668       0.00424441
H       18.43500000      19.18040000       2.37782000       0.00094076      -0.00199794      -0.00295429
H       17.14380000      16.69450000       2.92597000      -0.00120469      -0.00095779      -0.00121957
O        9.50986000       7.12202000      12.92190000       0.00605504      -0.00169017       0.00121569
H        9.85052000       8.90448000      12.94300000       0.00161751      -0.00381954       0.00179037
H       10.32690000       6.33759000      14.40720000      -0.00531498       0.00467314       0.00082975
O        6.64705000      16.98520000       0.45313900      -0.00412725      -0.00178827      -0.00058418
H        7.98496000      17.36780000      21.77619300       0.00337319      -0.00118532      -0.00116175
H        5.83745000      18.64100000       0.68291700       0.00350605       0.00050565      -0.00231881
O       17.88030000       9.78852000       4.94243000      -0.00055914       0.00690891      -0.00233059
H       17.54130000       9.34697000       6.69539000       0.00090707       0.00528143      -0.00247585
H       17.17970000      11.50910000       4.84663000       0.00356870      -0.00524642       0.00248225
O       17.46250000       4.44116000       5.66275000      -0.00567564      -0.00241795      -0.00015901
H       16.60790000       3.08562000       6.62247000       0.00107778      -0.00025983       0.00113292
H       18.72430000       3.52446000       4.65859000      -0.00217104       0.00019271       0.00728201
O       12.80640000      21.60450000      16.98400000      -0.00723220      -0.01206980      -0.01258400
H       12.45830000       0.38745000      15.76130000      -0.00230914       0.00410657      -0.00159710
H       15.75840000       3.18265000      17.32090000       0.00121061       0.00523520       0.00352379
O       22.30670000      10.32160000      12.12120000       0.00579188      -0.00491995       0.00000820
H       20.56370000      10.43960000      11.51370000       0.01334040       0.00090705       0.00271520
H        7.31807000      11.09110000      20.04111000       0.00038371      -0.00595892      -0.00691065
O       18.76660000      22.38615000      11.05970000      -0.01372300       0.00238238      -0.00230445
H       20.38830000      21.73696000      11.55300000       0.00166795       0.00340274       0.00960420
H       18.07660000       0.80769300      12.44990000       0.00965216      -0.00108485      -0.00266351
O       20.41800000      15.39550000       7.08307000       0.00067947      -0.00183978      -0.00396755
H       20.08200000      15.62000000       5.28952000      -0.00178396      -0.00011518       0.00667970
H       18.94660000      16.11750000       7.92056000       0.00222575      -0.00089234      -0.00242087
O       15.01120000      14.18420000       5.11094000       0.00354555      -0.00070985      -0.00169697
H       13.54330000      13.15540000       5.48787000      -0.00079081       0.00201757       0.00023483
H       15.36310000      15.05680000       6.68851000      -0.00236166      -0.00101061      -0.00162140
O       19.15310000       7.21506000      16.94150000       0.00184304       0.00483110      -0.00341772
H       20.37810000       8.25617000      17.80960000      -0.00599073      -0.00431393      -0.00545253
H       10.08545000      19.71665000      15.29575000       0.01698290       0.00385775       0.00387305
O       22.13260000      20.33380000       7.13274000      -0.00245229       0.00042732      -0.00543332
H       21.34780000      20.13060000       8.75718000       0.00101479       0.00088762      -0.00404466
H       21.42200000      18.96950000       6.15812000      -0.00143326      -0.00171129       0.00264110
O        2.71972000      15.05020000       8.10779000       0.00038234      -0.00256130       0.00307622
H        3.91792000      15.58680000       6.83248000      -0.00113186      -0.00065282      -0.00005652
H        1.00071000      15.62510000       7.75865000       0.00130993      -0.00239201       0.00104809
O       11.22740000       5.53162000      17.50360000       0.00235731       0.00160957      -0.00009425
H       12.80410000       6.11779000      18.45590000      -0.00082751       0.00412596      -0.00347665
H       10.64680000       3.96995000      18.18660000       0.00068383       0.00020925       0.00295478
O       21.69360000       2.10347000      17.06010000       0.00233999       0.00214957      -0.00191931
H       21.41880000       0.30637100      16.87470000       0.00259188       0.00161692       0.00059967
H       22.40830000       2.41846000      18.71340000       0.00199950      -0.00177475      -0.00101309
O       11.28130000      16.52560000      11.95550000       0.00551375      -0.00335906       0.00447607
H       11.89830000      18.21880000      12.10170000       0.00415504      -0.00089328      -0.00380588
H       13.02680000      15.32870000      12.45840000       0.00593185       0.00147406       0.00390988
O       17.23350000      10.67930000      10.08910000      -0.00072062       0.00010230      -0.00296042
H       16.54470000      12.09100000      11.06620000       0.00211732       0.00748915       0.00269046
H       15.86490000       9.47100000      10.14470000       0.00280737      -0.00493944      -0.00155593
O       14.00500000       6.71088000       9.40285000      -0.00533403       0.00901726      -0.03769540
H       12.93890000       7.88746000       4.77887000       0.00228091      -0.00156461      -0.00163224
H       12.54450000       7.19864000      10.24130000      -0.03280450       0.00741423       0.01362500
O        2.09812000       4.77152000       7.05879000       0.00040139       0.00161900      -0.00256531
H        1.55920000       6.45407000       7.50201000      -0.00118059       0.00034417       0.00206259
H        0.67871700       3.98387000       6.22948000      -0.00035877       0.00089814       0.00146528
O        3.19236000      15.75040000      19.55880000      -0.00234823       0.00098609       0.00050484
H        2.69218000      17.48050000      19.21920000      -0.00001967      -0.00338911       0.00257039
H        4.42245000      16.09580000      20.89830000      -0.00029493      -0.00027274       0.00330358
O        9.91952000      18.11270000      19.47490000      -0.00301113       0.00395411      -0.01127610
H       10.67000000      19.74040000      19.12030000       0.00319082      -0.00773983       0.00201351
H       10.13020000      17.04080000      17.97220000       0.00102141       0.00020711       0.01141420
O        4.33553000      19.52510000       5.81092000       0.00655328      -0.00388117       0.00355800
H        2.97112000      19.45810000       7.00904000      -0.00414710       0.00696734       0.00104894
H        5.83337000      20.05180000       6.68255000      -0.00397041      -0.00311016       0.00240544
O       18.67130000       0.63557800      22.32550000       0.00146900       0.00353755       0.00042701
H       18.76040000      21.83668200      21.08800000       0.00250743      -0.00258579       0.00125013
H       16.88470000       0.69958100       0.26365000      -0.00033392       0.00248339       0.00110907
O       17.02240000       4.78161000      11.97560000       0.00769626      -0.00765146       0.01048060
H       18.63800000       5.59473000      11.87010000       0.00699448       0.00158437       0.00175122
H       15.07680000       5.96400000      10.75180000       0.01198990      -0.00865539      -0.00086764
O       21.68970000       1.73128000       3.68763000      -0.00360505       0.00444874       0.00391149
H       21.10940000       1.18081000       2.03332000      -0.00227869      -0.00075139       0.00172066
H       21.63550000       0.26748100       4.79833000       0.00241348       0.00224414       0.00045407
O        8.91604000      12.22730000      12.58250000      -0.00751270      -0.00504718      -0.01218090
H        6.89251000      11.99430000      12.35370000      -0.00588101       0.00519120      -0.00191741
H        9.62295000      13.46660000      11.42240000      -0.00238047       0.00245871      -0.00606557
O        4.21069000       6.24781000      13.36630000       0.00506212      -0.00540445       0.00250290
H        2.67039000       6.74265000      12.51140000       0.00426641       0.00245588      -0.00126921
H        5.68832000       7.19534000      12.88040000      -0.00925864       0.00228036       0.00072412
O        4.87376000      21.41320000       1.55776000      -0.00423817      -0.00550461       0.00124777
H        5.10426000       0.67745000       1.97078000      -0.00888653      -0.01387420       0.00680155
H        4.10940000      20.49170000       3.03643000       0.01138980       0.02777110      -0.00712978
O       14.10920000       1.95043000       1.25250000      -0.00526361      -0.00994776      -0.01388150
H       14.52510000       2.80143000       2.76512000       0.00050145       0.00217825       0.00954927
H       12.83460000       0.70383900       1.67629000      -0.00068923       0.00829308       0.00227488
O       10.30740000      13.95060000      16.79830000      -0.01224980      -0.01210100      -0.00651375
H       11.75390000      13.13720000      17.56790000       0.02219150       0.00261019      -0.00013537
H        9.54631000      12.91070000      14.25910000      -0.00080408       0.00665046       0.01331830
O       16.40920000      18.62630000      13.91960000       0.00273441       0.00008800       0.00313721
H       18.19330000      18.98460000      14.03210000      -0.00917314      -0.00218879       0.00227340
H       14.27920000      20.73430000      16.26730000       0.00207576      -0.00418391      -0.00131758
