192
Lattice="25.30367 0.0 0.0 0.0 25.30367 0.0 0.0 0.0 25.30367" Properties=species:S:1:pos:R:3:force:R:3 TotEnergy=-1103.0766 cutoff=-1.0 nneightol=1.2 pbc="T T T"
O        6.05706000       5.44106000      23.48820000      -0.00533523      -0.00050020      -0.00823641
H        4.92056000       6.45056000      22.46010000       0.00324077       0.00085016       0.00277651
H        5.88008000       6.12057000      25.14860000       0.00338472       0.00322220       0.00561971
O       18.26340000       4.04361000       2.65508000      -0.01225830       0.01014270      -0.00015795
H       16.85460000       5.05298000       1.96238000       0.01001420      -0.00730428       0.00067260
H       18.09980000       4.12387000       4.45664000       0.00158246       0.00632148      -0.00252307
O       22.09500000      18.46440000      24.39970000      -0.00532777       0.00546016       0.00632451
H       22.57610000      16.93990000      23.53070000       0.00369882       0.00486103       0.00243554
H       20.69460000      19.12550000      23.45190000      -0.00389292      -0.00518182      -0.00392304
O       19.53280000      24.50280000       1.54068000       0.02791370      -0.13301700      -0.01714410
H       19.14610000       0.82890600       1.70654000      -0.02947580       0.08989970      -0.01177900
H       19.17940000      23.59840000      25.21122600      -0.00227659       0.03866300       0.02635290
O        3.94462000       2.04447000      12.70620000      -0.00946340      -0.01148230      -0.00670147
H        3.85636000       1.54180000      10.91700000      -0.00165252       0.01075830       0.01898100
H        3.23422000       0.63502200      13.65980000       0.00709806       0.00585078      -0.00452611
O       17.54490000      24.07650000       6.84173000      -0.00269062       0.00484889       0.00336994
H       16.38090000      25.28500800       6.18581000      -0.01238830      -0.00221742      -0.01045350
H       18.08860000      23.24290000       5.29869000       0.00886580       0.00566856      -0.00157999
O       12.67030000      19.15110000       3.93990000       0.00742117       0.00190285       0.00628443
H       14.30670000      19.10650000       4.72296000       0.00208401       0.00204069      -0.00579312
H       12.45070000      17.42310000       3.40646000      -0.00737313       0.00871865      -0.00186011
O       25.29871000      21.72250000       3.09462000      -0.00154431       0.00202376      -0.00124287
H        0.61517400      23.42590000       3.15959000      -0.00181591      -0.00315680       0.00217599
H       23.63400000      21.81520000       2.38277000       0.00036482      -0.00026597      -0.00220244
O       16.54150000      11.86170000       5.95297000       0.01920330       0.00740860      -0.00004922
H       17.41190000      12.84790000       1.83322000       0.00651349       0.01087020       0.01775840
H       15.46920000      11.02290000       4.81372000      -0.02139650      -0.01372360      -0.01014140
O        1.89850000      14.12210000      12.32820000       0.00125718      -0.00749971      -0.00530835
H        3.45280000      15.07020000      12.36530000      -0.00017450       0.00269764      -0.00413719
H        0.69021100      15.18640000      13.14130000       0.00046706       0.00225632       0.00939942
O       21.26670000       0.19153000      14.33090000      -0.02412500       0.00803287      -0.02041110
H       19.61180000       1.07319000      14.42370000       0.01193240      -0.01880190      -0.00800603
H       21.24330000      24.65650000      12.64210000       0.00512063       0.01028680       0.02434250
O       21.66490000       3.74438000      18.30380000       0.00799715      -0.03995560      -0.00561107
H       21.15790000       5.44742000      18.33810000      -0.01477330       0.03158840      -0.00206569
H       22.98260000       3.48161000      16.96330000      -0.00261961       0.00538420      -0.00236797
O       22.69090000      23.00070000       9.28020000       0.03740210      -0.07255520       0.11043100
H       22.17530000      21.27370000       8.95316000       0.00013739       0.00585190      -0.00615270
H       22.23460000      23.96200000       8.03510000      -0.03977220       0.06742370      -0.10314100
O        3.90428000       0.56589500       2.95924000      -0.00142192      -0.00230900       0.00348247
H        5.65744000       1.03554000       3.08644000       0.00315545       0.00601878       0.00086076
H        3.57333000       0.21020100       1.21135000       0.00128699       0.00210295      -0.00390828
O        8.97076000      13.47390000       7.85343000       0.00254004       0.01254820       0.00539788
H        9.19815000      11.90340000       7.01006000       0.00404017      -0.00750776      -0.00247504
H       10.59010000      14.15940000       8.34020000       0.00156574      -0.00729341      -0.00001981
O       12.79600000       7.32376000       8.78039000       0.00246349      -0.00771276       0.00349853
H       12.18370000       5.60997000       9.09671000      -0.00011718       0.00317391      -0.00161099
H       11.61760000       8.39549000       9.65852000       0.00570470      -0.00154792       0.00103231
O       14.37230000      21.23620000      10.48100000      -0.00899273      -0.00048622      -0.00052711
H       13.04970000      21.58680000       9.27843000       0.00129123      -0.00333174       0.00564284
H       15.90710000      21.64250000       9.62363000       0.00312991       0.00337785      -0.00200779
O       12.35320000      15.34680000      12.00600000      -0.01037850       0.00331610      -0.00044384
H       11.77260000      13.66460000      12.34290000       0.00156633      -0.00598848       0.00667611
H       10.99330000      16.39510000      12.65090000       0.01014390      -0.00098836      -0.00300812
O       20.36470000      17.93350000       7.84585000      -0.00279444      -0.01149750       0.00954646
H       19.54000000      17.34340000       9.41069000       0.00228569       0.00009065      -0.00911230
H       21.43170000      16.55270000       7.25705000       0.00204580       0.01355520       0.00335242
O       20.38400000      19.61870000      15.83730000       0.01140740      -0.00427829      -0.00275533
H       21.36410000      19.62360000      17.36700000      -0.01058330      -0.00380091       0.00303951
H       19.52030000      21.20430000      15.88830000      -0.00475780       0.00550259       0.00151767
O        7.36603000      13.09020000      22.59810000       0.02747000      -0.03780080      -0.02073930
H        6.09356000      11.83770000      22.34650000      -0.00651789      -0.00005170      -0.00030379
H        6.58402000      14.49730000      23.24500000      -0.02589030       0.03851360       0.02183630
O       11.08840000       2.24528000       9.59108000       0.00652695      -0.00510698      -0.00889490
H       10.19740000       2.73660000      11.08290000      -0.00590871       0.00267172       0.01110400
H       12.06790000       0.78629600      10.11460000      -0.00530521       0.00978530      -0.00247171
O        2.73001000      23.88510000      16.98940000       0.00069706       0.00267826      -0.01505510
H        3.59384000      24.52414400      18.42370000       0.00149548       0.00304781       0.01174260
H        1.20221000      23.14790000      17.58450000      -0.00429239      -0.00298741       0.00319649
O       10.51350000       0.17880300      18.47780000       0.00036315      -0.00131806       0.00465074
H        9.17819000      24.29250000      18.70240000      -0.00436656      -0.00212580      -0.00171476
H        9.73557000       1.71048000      17.89510000       0.00242061       0.00091824      -0.00699145
O        9.59763000      13.39220000      17.51620000      -0.00512881       0.00232040      -0.00951841
H        8.47230000      13.73370000      18.89660000       0.00213300      -0.00372379       0.00901061
H       10.61710000      14.88580000      17.38010000       0.00303695      -0.00233894       0.00250517
O       24.56730000       8.85742000      10.65880000      -0.00960444       0.00283158       0.00259759
H       23.62335000      10.33340000      11.14530000       0.00947987      -0.00231796      -0.00462788
H       25.15710000       8.20181000      12.23650000       0.00346458      -0.00485969       0.00347808
O       17.38960000      18.86620000      20.97240000       0.00360579       0.01073290       0.00332989
H       15.83090000      18.34160000      20.21090000       0.00351314      -0.00367780       0.00062307
H       17.39540000      20.77580000      20.81110000      -0.00206748      -0.00217044      -0.00156140
O        1.74199000       8.70560000      21.94770000       0.01051820      -0.00324983       0.00013420
H        0.69868300       9.83608000      21.00620000      -0.00156742       0.00628547      -0.00429660
H        1.45616000       9.18576000      23.67210000      -0.00551067      -0.00059246       0.00290872
O       21.67410000      10.87100000      19.97060000      -0.00106994       0.00084859      -0.01003210
H       21.07020000      11.26990000      18.26910000       0.00393020       0.00089539       0.00329053
H       21.28690000      12.36520000      20.93300000       0.00525980      -0.00107016       0.00114341
O        3.70829000      20.38600000       6.81796000       0.00122189       0.00556951      -0.00277315
H        2.15396000      19.43830000       6.82338000      -0.00164730      -0.00160807      -0.00287549
H        4.13954000      20.34450000       5.05791000      -0.00217726      -0.00047818      -0.00179294
O        0.90237200      16.28020000      21.65480000       0.00374469       0.00146941       0.00215387
H        1.60579000      17.88070000      22.16210000      -0.00172985      -0.00782140      -0.00155786
H        0.69433800      16.43710000      19.85990000      -0.00409023       0.00095268      -0.00485770
O        9.45641000      22.62850000       7.28766000       0.00604349       0.00704288       0.00140573
H        7.80256000      22.82920000       6.59973000      -0.00571935      -0.00316778       0.00350624
H       10.44230000      21.83440000       6.00476000       0.00081560      -0.01180190      -0.00756058
O        4.99531000      18.62170000      15.72340000       0.01612590       0.01241860       0.01086440
H        5.50968000      19.13630000      17.41880000      -0.00347697      -0.00338721      -0.01355620
H        5.98244000      19.70390000      14.60240000      -0.01096320      -0.01275820       0.00431768
O        8.80836000       4.32311000      14.63480000       0.00345163      -0.00029841       0.00276632
H        7.02085000       4.28546000      14.91620000      -0.00188335      -0.00016621      -0.00694162
H        9.33328000       6.05591000      14.86600000       0.00106619       0.00005527      -0.00095297
O        0.08279200      17.26530000      16.43190000       0.00192599       0.00541163      -0.00745897
H       24.30780000      18.37610000      15.47130000      -0.00031403      -0.00112671       0.00347605
H        1.81214000      17.79360000      16.01950000      -0.00263882       0.00080632       0.00046810
O       14.27880000       6.72495000      25.01009600       0.01499220       0.00036135       0.01056150
H       15.20950000       7.82837000      23.92310000       0.00606796       0.00202231      -0.00948930
H       13.58410000       5.30632000      24.02510000       0.00543636      -0.00148878      -0.00215528
O        0.25774200       5.41000000      15.14790000       0.00010160       0.00160999       0.01119920
H        1.20602000       6.36117000      16.39170000       0.00132132      -0.00076531      -0.00622990
H        1.53716000       4.55061000      14.13600000      -0.00141669      -0.00519756      -0.00065062
O       10.25980000      23.57430000       0.68832900      -0.00495160      -0.01541270       0.01375380
H       11.26300000      22.05630000       0.91746200       0.00008994       0.00462104       0.00046332
H        9.24352000      23.58750000       2.22895000       0.01030250       0.00634222      -0.01607030
O       10.73370000       8.54641000       2.10693000      -0.11121900       0.02767140       0.10075300
H        9.81591000      10.00300000       1.61103000       0.00529448       0.00464612      -0.01333890
H       12.00060000       8.04152000       1.15522000       0.08527800      -0.02463080      -0.07573450
O       19.37780000      11.48050000      15.26220000       0.00230456      -0.00040838      -0.00956470
H       17.92400000      12.56850000      15.22110000      -0.00131300       0.00200865       0.00274999
H       20.16240000      11.87380000      13.67490000       0.00065010       0.00298906       0.00326103
O       17.36400000      23.91770000      20.62850000       0.00539107      -0.00307263       0.00107229
H       15.59270000      24.31727000      20.51490000       0.00503560       0.00382375      -0.00070095
H       20.19310000       2.60092000      18.06130000       0.00463323       0.00103718       0.00762063
O        4.38894000      10.00640000      16.45860000      -0.01312860      -0.00591010      -0.00214268
H        3.25663000      10.96630000      15.40370000       0.00366679       0.00310095      -0.00057873
H        6.03170000      10.47970000      15.90040000       0.00904944       0.00440348      -0.00131299
O       13.64280000      14.39590000      21.15840000       0.00232489       0.00102798      -0.00511863
H       13.08220000      15.15230000      22.68820000      -0.00266088       0.00225337       0.00582981
H       14.70580000      13.01920000      21.66640000       0.00389514       0.00071356       0.00168544
O       11.41770000       9.55202000      14.69810000       0.00048979      -0.00344783       0.00921011
H       11.28410000      10.27090000      16.40740000      -0.00264628       0.00178296      -0.01822050
H       12.99890000       8.64761000      14.68100000      -0.00118700      -0.00026371       0.00419752
O       17.68570000      16.94160000       3.35042000       0.00826172       0.00303029       0.00151378
H       18.19890000      16.94570000       5.12342000      -0.00046466      -0.00458203      -0.00613593
H       19.05540000      17.87280000       2.55883000      -0.00406848      -0.00828841      -0.00542793
O       24.74700000      11.85450000       3.34356000      -0.00442999      -0.01184600       0.00595059
H       21.92460000       9.22970000       5.17997000      -0.00214957       0.00437262      -0.00142220
H        0.19198000      10.19320000       3.63359000       0.00096231       0.01428300      -0.00120580
O        0.28589400      16.06450000       6.64294000      -0.01038040      -0.00694842      -0.00108828
H        0.12225800      15.81360000       8.42311000       0.00846146      -0.00676147       0.00409842
H        0.30575200      14.37380000       5.86119000      -0.00130109       0.00669773      -0.00420230
O        3.36618000       1.19547000      22.78520000       0.00929071      -0.00950551      -0.00224537
H        4.52295000       2.55181000      23.27060000       0.00111930       0.00353799      -0.00252866
H        1.88908000       2.08998000      22.30850000      -0.01038590       0.00322063      -0.00062362
O        8.64233000      16.12320000       3.12098000      -0.00275384      -0.00449817      -0.00055127
H        6.86058000      16.47260000       3.08442000       0.00002549       0.00118670      -0.00519644
H        8.92220000      15.41930000       4.77589000      -0.00527122       0.00007902       0.00039020
O       23.52450000       5.99301000      24.52280000       0.00227490       0.00104461       0.00735563
H       22.78010000       4.51544000      25.23946700      -0.00677582      -0.00337992      -0.00039340
H       23.51640000       5.81911000      22.73050000       0.00041730      -0.00091649       0.00006260
O        2.60142000       7.83295000       5.69363000       0.00166504       0.01434300       0.00775757
H        2.15537000       6.41456000       4.71062000      -0.00441513      -0.01700840      -0.00308780
H        1.50451000       7.81948000       7.15165000       0.00331967      -0.00125467      -0.00223049
O       16.43130000       7.09860000      16.12460000      -0.00250808      -0.00758897       0.00837174
H       15.68530000       5.41997000      15.74070000       0.00237758      -0.00398680      -0.01006300
H       17.08360000       7.71121000      14.55800000       0.00256024       0.00025057       0.00080192
O        1.20150000       1.94629000       7.71267000       0.00157276      -0.00198362       0.00307328
H        2.13517000       0.87985800       6.56887000      -0.00178779       0.00221488      -0.00383977
H        0.28666900       0.79119700       8.76316000      -0.00060375      -0.00356409       0.00016270
O       12.86970000       2.64066000      23.00410000      -0.00574267      -0.00328641       0.00028458
H       11.06590000       2.52189000      22.86770000       0.00062590      -0.00336332      -0.00245913
H       13.28320000       1.50594000      24.35540000      -0.00044386      -0.00397027      -0.00076258
O        6.71298000      21.85210000      21.88930000       0.00024891       0.00069642      -0.01024280
H        8.30770000      21.75010000      22.74170000       0.00357708       0.00201293       0.00334444
H        6.40840000      23.63360000      21.77290000      -0.00424468       0.00062948       0.00584864
O        4.35549000      18.60370000       0.49793600      -0.00279879      -0.00439339       0.00094079
H        2.56709000      18.88270000       0.28715000       0.00346115       0.00151070       0.01091850
H        5.15550000      20.14030000      25.28470000      -0.00144041       0.00179526      -0.00556629
O       20.78170000       9.35886000       6.60813000       0.00097675       0.00126178       0.00322653
H       21.33360000      10.91680000       7.36835000       0.00496047      -0.00434347      -0.00379961
H       17.97440000      10.67630000       6.18255000      -0.00596436       0.00671759      -0.00612197
O        8.96695000       2.73039000       3.86749000      -0.00314027      -0.00380636       0.00107784
H        9.54942000       2.42224000       5.56551000      -0.00083016       0.00055527       0.00131258
H        8.83105000       4.53137000       3.70899000       0.00465115       0.00383997      -0.00058890
O       16.92930000       9.88880000      21.39440000       0.00673349      -0.00073168       0.00586539
H       18.67560000       9.75015000      20.77410000      -0.01007750       0.00279128       0.00874169
H       15.92190000       9.66335000      19.92790000      -0.00575851      -0.00671374      -0.01190950
O        6.32381000      17.59970000      10.12370000       0.14722200      -0.17145600       0.25642700
H        5.61375000      18.46090000       9.12879000      -0.14421200       0.17204600      -0.22886600
H        7.19374000      16.12520000       9.64034000      -0.00365738      -0.00542330      -0.02202360
O       17.68910000       4.83471000       8.80655000      -0.00184325      -0.04050950      -0.00369209
H       16.25790000       5.87186000       9.38730000      -0.01422440      -0.00847676      -0.00344692
H       19.15130000       5.48754000       9.78740000      -0.00888196      -0.02292990      -0.01318290
O       12.49320000      19.98840000      16.36740000      -0.00375917       0.00375845       0.00393533
H       12.37120000      21.33800000      17.58340000       0.00315057      -0.00217405      -0.00327217
H       12.97430000      20.84730000      14.84050000       0.00237275      -0.00165308      -0.00175401
O       17.94140000      16.04880000      12.20690000      -0.00173773      -0.00719591      -0.00666209
H       18.61840000      16.95840000      13.61360000       0.00077976       0.01021170       0.00905563
H       16.12460000      16.29520000      12.21630000       0.00140515       0.00014926      -0.00015622
O       15.12810000       2.56444000      13.76700000      -0.00414051      -0.00179003      -0.00376685
H       13.50890000       1.70354000      14.05310000       0.02381260       0.01040900       0.00047462
H       17.05260000       2.21137000       8.65633000       0.02243310       0.06988340       0.03146600
