192
Lattice="23.58964 0.0 0.0 0.0 23.58964 0.0 0.0 0.0 23.58964" Properties=species:S:1:pos:R:3:force:R:3 TotEnergy=-1103.53393 cutoff=-1.0 nneightol=1.2 pbc="T T T"
O        2.57432000      23.34333600      13.85580000      -0.00657193      -0.01523900      -0.00377790
H        2.91522000       0.30932500      15.56080000       0.01308750       0.00943465      -0.00715372
H        2.78083000       1.04229000      12.59710000       0.00388885       0.00563758       0.00462113
O       14.50810000      16.02590000       2.97489000       0.00347084       0.00295859      -0.00190085
H       14.76890000      17.76650000       2.44164000       0.00138305      -0.00376626       0.00574988
H       15.21850000      15.05490000       1.60636000      -0.00074550       0.00219827       0.00150678
O       15.38510000      20.80320000       4.09265000      -0.00236258       0.00022575       0.00355668
H       14.17930000      20.68900000       5.44696000       0.00122349       0.00753593       0.00244542
H       14.87900000      22.25920000       3.10444000      -0.01245940      -0.00026710      -0.00411356
O       10.29940000      19.55800000      14.58480000      -0.00076482      -0.00633848       0.00117770
H        9.50657000      18.41370000      15.78530000       0.00323117       0.00683605      -0.00105470
H       11.76080000      18.63220000      13.91550000      -0.00774110      -0.00847513       0.00439826
O       19.91930000       6.33244000       0.99715600      -0.00073380       0.01822420      -0.00359381
H       21.13520000       7.66005000       0.53960900       0.00406784      -0.00605215       0.00104585
H       18.65290000       7.40574000       1.74481000      -0.00503658      -0.01282590       0.00112489
O        3.47771000       7.71591000      10.95020000      -0.00113444       0.00194406      -0.00513681
H        1.96086000       8.38010000      10.14010000      -0.00087458      -0.00299043       0.00275749
H        3.38462000       5.89998000      10.84870000       0.00128366       0.00057927      -0.00591466
O       20.65850000      18.25860000       9.87818000      -0.00665511       0.01613720       0.00196689
H       20.24570000      19.90300000      10.66360000      -0.00107755      -0.01323110      -0.01216130
H       20.78840000      18.64190000       8.09355000       0.00914873       0.00682748       0.00142838
O       22.34560000       1.43293000       6.61197000      -0.00357354      -0.00390096      -0.00585699
H       22.98590000       2.25831000       5.10152000       0.00608558       0.00795384       0.00202472
H       21.39120000       0.07810900       5.82792000       0.00260224      -0.00393338       0.00699856
O        3.23966000      14.81870000       7.92425000       0.00589605      -0.00338754       0.00304293
H        3.12794000      14.38770000       9.70294000      -0.00288397      -0.00009902      -0.00881450
H        4.89513000      14.15960000       7.45624000      -0.00683907      -0.00416487       0.00794652
O       16.15280000       1.08753000      21.00870000      -0.00059273       0.00031780      -0.00235550
H       17.11120000      23.28151300      20.35980000       0.00363935       0.00802815       0.00582208
H       16.11940000       2.26611000      19.62670000       0.00236030       0.00346278       0.00336615
O       20.27550000      20.86170000       4.35995000      -0.01405060      -0.02354450      -0.01482290
H       20.22140000      19.61960000       2.95976000       0.01813910       0.00907815       0.01013640
H       18.43540000      21.01070000       4.52215000       0.00228431       0.00631991       0.00787352
O       20.60980000      12.80450000      16.48570000       0.00208393      -0.00376687      -0.00488869
H       19.69090000      14.13100000      17.30030000       0.00485322       0.00819209       0.00247226
H       19.33000000      11.61040000      16.05050000      -0.00470667      -0.00823122       0.00051329
O       13.51370000      10.45510000      20.46080000      -0.02806550       0.01109710      -0.00709774
H       14.05740000       9.01268000      21.57590000      -0.03164320       0.01366530      -0.00620126
H       11.22530000      10.86900000      19.83120000       0.07225280      -0.02421660       0.00259383
O        3.50540000       7.93132000       2.89174000       0.00135122      -0.00412488      -0.00539025
H        4.63915000       7.56401000       1.48953000       0.00290969      -0.00068738       0.00018611
H        2.18485000       8.88608000       2.04326000      -0.00242083       0.00197408       0.00391081
O       22.86390000      19.69960000      15.67560000      -0.01032100       0.00816274      -0.01921470
H        0.27226000      20.51370000      14.34400000      -0.00543948      -0.00004710       0.00742494
H       21.21580000      19.50920000      14.91750000       0.01294930      -0.00810876      -0.00050088
O       16.97400000      14.79050000      22.03160000       0.00085470      -0.00638679      -0.00340465
H       17.50070000      15.69120000      20.54720000      -0.00477388       0.00348544      -0.00111014
H       15.78560000      13.55360000      21.40530000      -0.00288540      -0.00514262       0.00085258
O        9.92660000      11.63320000      17.27320000       0.00670130      -0.00143220      -0.01148520
H        8.39128000      11.18980000      16.37280000       0.00006780      -0.00389619       0.01115240
H       11.26510000      11.55870000      15.92330000      -0.00510826       0.00005853       0.00382052
O        4.80101000       8.85313000      15.64680000       0.00560963       0.00981703       0.01136390
H        3.15200000       8.76409000      16.39680000       0.00334777       0.00900884      -0.00101319
H        4.60623000       8.59165000      13.87410000      -0.01497620      -0.00249026      -0.01784690
O        9.23890000       7.20427000      11.03130000      -0.01400140       0.00218284       0.00043903
H        8.23282000       8.08740000      12.27910000       0.00709246      -0.00400548      -0.00888302
H        8.20027000       7.23807000       9.47897000       0.01388290      -0.00152740       0.00476827
O       23.06770000      13.57320000       4.35613000      -0.01736680      -0.01839530      -0.02675740
H        0.91606000      13.88920000       5.38850000       0.00352675       0.01468160       0.01728210
H       21.71460000      14.77260000       4.45901000       0.01232600       0.00135816       0.00964484
O        1.60878000      11.74720000      18.68920000      -0.01409700       0.00194287       0.00854844
H       23.54744500      11.83680000      17.89360000       0.00374201       0.00033174      -0.00107439
H        1.69465000      13.35540000      19.54410000       0.00893145      -0.00078406       0.00459333
O       15.92910000       3.87863000       7.28292000       0.00388099      -0.00239291       0.01682520
H       15.50130000       2.10447000       7.38536000       0.00035665       0.00842442      -0.00280790
H       16.50550000       4.35159000       8.97874000      -0.00536111      -0.00264539      -0.01408070
O       22.61500000       1.79195000      17.25910000      -0.01394300       0.00466727       0.00190802
H        0.32836000       1.05642000      18.30260000      -0.00464067       0.00050352      -0.00079992
H       23.15590000       1.76466000      15.53030000       0.00539535       0.00207588      -0.00052063
O       10.22130000      20.17610000      22.04790000       0.00070007      -0.00656883      -0.00508508
H       10.11160000      18.91160000      20.75640000       0.00729292      -0.00248998      -0.00531211
H        8.42368000      20.23090000      22.65880000      -0.00971612       0.00924040       0.01116180
O       11.80170000      11.60210000       7.63073000      -0.00048717       0.00483144      -0.00180483
H       13.02640000      12.21010000       8.82268000       0.00271931       0.00058739       0.00009431
H       11.59180000      12.93630000       6.41020000      -0.00443782       0.00364162       0.00155769
O       13.48350000      11.14090000      13.21110000       0.00742624      -0.01452460       0.01213060
H       15.20000000       9.47723000      15.25010000      -0.01150060       0.02029500       0.00341160
H       12.73730000      10.00480000      11.97510000       0.00219354       0.00561868       0.01314010
O        0.52235900       3.74852000       2.37654000       0.00202712      -0.01608870       0.00018362
H       22.38605000       4.22805000       2.10069000      -0.00541548       0.01436160      -0.00231388
H        1.51406000       5.23878000       2.81872000       0.00017118      -0.00058083      -0.00311363
O       13.90140000      23.10600000      14.53580000      -0.00592699       0.01114750       0.01355230
H       12.32180000      22.12100000      14.75240000       0.01373000      -0.00372757      -0.00139429
H       13.30890000       1.15796000      15.13120000      -0.00077432       0.00197887      -0.01242190
O       22.31900000       9.63790000       9.54751000       0.00034082      -0.00696314      -0.00090233
H       22.60120000      11.29900000      10.27290000      -0.00192449       0.00148656      -0.00568590
H       20.90990000       9.76613000       8.36061000       0.00922304       0.00504357       0.00579537
O        5.61045000       2.73201000       9.86213000       0.00587297       0.00365142      -0.00445392
H        5.89994000       2.60200000       8.05470000      -0.00655666      -0.00550738       0.00386081
H        7.25930000       3.18536000      10.47330000      -0.00219504       0.00225636       0.00473035
O       16.40430000       9.39331000      16.86520000       0.01915260      -0.01927940      -0.00446423
H       17.29470000       7.75943000      17.36000000      -0.01150310       0.01218660      -0.00111618
H       15.44520000      10.05410000      18.46530000      -0.02502750      -0.00251089       0.00056006
O       16.39400000      15.80450000       8.08035000       0.00227757       0.01049320      -0.01448130
H       16.04150000      16.36450000       6.34167000      -0.00113634      -0.00926546       0.01155800
H       17.91770000      16.71830000       8.59110000      -0.00698211      -0.00637043       0.00350091
O       14.12850000      16.51300000      13.08330000       0.01085640      -0.01182200      -0.01738790
H       13.76680000      14.69510000      12.64390000       0.00393574       0.01337870       0.01222600
H       14.81740000      17.22360000      11.52340000      -0.00605187      -0.00975931       0.00813893
O       12.68950000       0.06706000       0.77766000       0.00056675       0.00892206       0.01679300
H       13.98670000       0.83086000      23.34810000      -0.00074650      -0.00779434      -0.00923762
H       11.84660000      22.32990000      23.36280000       0.00239750      -0.00045304      -0.00362940
O       23.26790000      10.06940000       0.25669300       0.00491621       0.00704778      -0.00527830
H       23.37450000      11.58070000       1.32013000      -0.00357291      -0.00088255      -0.00436665
H        0.34376000      10.43700000      22.16604000      -0.00051335       0.00467855       0.00696130
O        7.47233000       7.19668000      23.08420000      -0.00085325       0.00356847       0.00400899
H        7.84127000       6.51467000      21.41300000      -0.00440691       0.00452642       0.00533114
H        8.06949000       6.00175000       0.74946000       0.00419497      -0.00595000      -0.00806029
O        6.80874000      13.18670000      23.20562000       0.02165930      -0.01848640       0.02096390
H        6.84737000      11.38660000       0.10024500      -0.00239143       0.01894850      -0.01010520
H        8.09637000      13.91770000       0.73372800      -0.00998990      -0.00482412      -0.00608687
O       18.82660000       5.38815000      19.21580000      -0.00162078      -0.00486372      -0.00181113
H       19.97290000       4.11555000      18.52000000       0.00057375       0.00900159       0.00702555
H       18.94890000       5.33649000      21.07470000       0.00009971       0.00338469      -0.01140060
O       17.83970000      17.11960000      17.27990000      -0.00156003       0.00494283      -0.01190570
H       18.07190000      18.92870000      17.13620000       0.00990074      -0.00739935      -0.00294403
H       17.28770000      16.64830000      15.58010000      -0.01455810       0.00016075       0.00705859
O        3.65137000      19.13010000      18.50630000      -0.00034220      -0.00008848      -0.00415027
H        4.18472000      17.44390000      18.13150000       0.00845766      -0.00200014       0.00247609
H        2.67029000      19.51250000      17.04630000      -0.00880290       0.00115297       0.00074417
O        4.28104000       0.60618800       4.97826000      -0.01125530      -0.00667431       0.00758515
H        4.00404000      22.40172000       4.60925000       0.00598503       0.01013710       0.00488773
H        2.88190000       0.99189700       6.11377000       0.00771528      -0.00410320      -0.01171320
O       22.40780000       3.68965000      11.13520000      -0.00940346       0.00737250      -0.01230100
H       21.98110000       5.47592000      11.12950000      -0.00021950      -0.00621396       0.00614447
H       21.87160000       3.17834000       9.41207000       0.01368830      -0.00187954       0.00854488
O       17.76840000      10.72470000       7.22889000      -0.00419959       0.00480404       0.00214152
H       17.25850000      12.46580000       7.54543000       0.00476574      -0.00280387       0.00070757
H       16.63570000      10.13110000       5.90041000       0.00403778       0.00139122       0.00377607
O        7.60867000       5.96644000      17.96740000       0.10596700      -0.02573450       0.05525910
H        6.58896000       7.03897000      17.15640000      -0.06414010       0.05798450      -0.04763100
H        6.93723000       4.38706000      18.05910000      -0.03316010      -0.05525930       0.00333736
O        8.10716000      16.26520000      18.97090000      -0.00003464      -0.01665600      -0.00223304
H        8.41426000      14.43400000      18.80190000       0.00121753       0.02255600       0.00218159
H        7.03592000      16.41550000      20.43730000       0.00330891      -0.00107183      -0.00199751
O        5.74432000      20.28090000       0.24048200       0.00924847      -0.01081500       0.00148440
H       16.51020000      20.52650000      18.77810000       0.01029740       0.01693740      -0.02032420
H        4.55736000      21.60780000      23.55137100      -0.00240550       0.00258564      -0.00277863
O       11.19340000       3.98012000      14.47640000       0.00029422      -0.00240954       0.00455373
H       10.05980000       4.52135000      15.80860000       0.00277855       0.00266587       0.00030484
H       10.63780000       4.97544000      13.03940000       0.00484142      -0.00052475      -0.00184122
O        8.98677000       3.08856000       2.57659000      -0.00332764      -0.00458873      -0.00153973
H        7.63609000       1.86682000       2.73073000      -0.00223672       0.00658897       0.00446398
H       10.35720000       2.07578000       1.85211000       0.00129647       0.00292009       0.00295894
O        6.92795000      11.97160000       9.64607000       0.01135820      -0.00540970       0.00256586
H        6.16306000      10.32960000       9.45138000      -0.00178304       0.00686778      -0.00053917
H        8.72163000      11.70410000       9.27224000      -0.01083850       0.00162050      -0.00324936
O        4.64894000       0.71016000      18.92770000      -0.00125872      -0.01589860      -0.00361304
H        5.07991000      22.50630000      18.65050000       0.00009139       0.01425390       0.00633741
H        3.61945000       0.57496000      20.44920000       0.00472155      -0.00031391      -0.00706762
O       17.22150000       7.07173000      11.54280000       0.00312356       0.03333400      -0.01878360
H       17.21410000       8.55682000      10.36140000       0.00318110      -0.02739270       0.00546685
H       16.88740000       8.03425000      13.03540000      -0.00155941      -0.01035220      -0.00092271
O       23.35060000      14.15530000      12.10010000       0.00498312      -0.00792651      -0.00417520
H       22.73320000      15.73840000      11.45050000      -0.00650741      -0.00071945       0.00126246
H       22.24410000      13.56270000      13.42290000       0.00188427       0.01062020       0.00420030
O       21.15880000      17.21880000       0.54733600      -0.00145478       0.00220584       0.00398945
H       20.21170000      15.82320000      23.45951600      -0.00247022       0.00107260       0.00311048
H       22.77860000      16.50000000       1.02686000       0.00089219       0.00004813      -0.00564371
O        2.25962000      15.65880000      22.88390000       0.01408720       0.02261860       0.00284419
H        2.03914000      17.41310000      22.35920000       0.00356016      -0.01104790      -0.00140707
H        3.94810000      15.77530000       0.07426000      -0.01883910      -0.00964411      -0.00763794
O        0.76938500      23.38040000      22.29680000      -0.00196294       0.01294760       0.00993737
H       23.35133900      22.06640000      23.05300000       0.00513310       0.00437503      -0.00036787
H        0.84542300       1.21216000      23.50710000      -0.00385295      -0.01179290      -0.00206290
O       14.59520000       6.31505000      23.53567400      -0.01012110      -0.02272800       0.01285270
H       13.84990000       4.68025000      23.15206600       0.00531221       0.01551710      -0.00198380
H       14.46440000       6.39768000       1.82355000      -0.00110412       0.01175540      -0.02123810
O        9.47402000      15.73040000       4.01204000      -0.00279895      -0.00336533       0.00037922
H       11.06300000      16.49850000       3.50798000      -0.01022400      -0.00207240      -0.00269581
H        8.05983000      16.86720000       3.79453000       0.00692029       0.00303353      -0.00012068
O        7.72015000       7.51473000       5.99911000       0.00047349      -0.00084532       0.00585964
H        8.56967000       6.21644000       5.04665000      -0.00536139      -0.00288945      -0.00052760
H        6.04174000       7.72188000       5.28670000       0.00473262      -0.00115684      -0.00173340
O       18.25130000      22.42590000      17.00850000      -0.00976639      -0.00861026       0.00493569
H       19.95690000      22.55290000      16.24800000       0.00058368      -0.00321444       0.01928620
H       17.03180000      23.09090000      15.78240000      -0.01511740      -0.01268030       0.00405192
O       12.71140000      22.65780000       8.74343000       0.00751267      -0.00340623      -0.00191045
H       12.38800000       0.40006000       9.91445000       0.00300558       0.00598653       0.00372205
H       11.31650000      21.57480000       9.13636000      -0.00997343      -0.00173559      -0.00349533
O        7.76346000      21.43940000      10.31960000       0.00159604      -0.00985272       0.00225917
H        8.29192000      20.30790000      11.67300000      -0.00768911       0.01081960       0.00075703
H        6.48303000      22.57570000      10.96820000       0.00739939      -0.00733643      -0.00332435
O       19.08850000      22.97292400      11.63660000       0.00453342      -0.00874527       0.00749965
H       20.54580000       0.48002200      11.68690000      -0.00573696       0.01163820      -0.00130730
H       17.62970000       0.28621100      12.23530000       0.00198048      -0.00009977      -0.00898793
O       14.39890000       8.29412000       4.44685000      -0.00382044      -0.00443766       0.00580264
H       12.83110000       9.13206000       4.90684000       0.00538972      -0.00203511       0.00212026
H       14.74790000       7.16835000       5.85153000      -0.00418873      -0.00712411      -0.00340927
O        4.70593000      19.01270000       5.76365000       0.04396830       0.00203328       0.01992680
H        4.36684000      17.69870000       7.06701000      -0.00370578       0.01738320      -0.01616200
H        6.38648000      19.74330000       6.28634000      -0.03947930      -0.01238710      -0.00632166
