192
Lattice="24.65838 0.0 0.0 0.0 24.65838 0.0 0.0 0.0 24.65838" Properties=species:S:1:pos:R:3:force:R:3 TotEnergy=-1103.45567 cutoff=-1.0 nneightol=1.2 pbc="T T T"
O       24.23400000      20.39733000      18.68466000       0.05213190      -0.02547400       0.01808800
H       22.82790000      21.07039000      17.95156000      -0.04895800       0.02544040      -0.02827820
H       24.53540000      18.83899000      17.64836000       0.00036000       0.01684790       0.00288261
O       22.56042000      21.24752000      23.55899000      -0.03900940      -0.02258520       0.04973920
H       23.08052000      22.85282000      24.04249200       0.01350120       0.03775370       0.01334450
H       23.28052000      20.94082000      22.02283000       0.02767990      -0.01595580      -0.05810280
O       11.45090000       4.51634000      14.82620000      -0.00597409       0.00742854       0.00260524
H       12.37330000       3.88481000      16.35300000       0.00004748      -0.00276499      -0.02861410
H       11.44620000       3.53499000      13.24720000       0.01212240       0.00120015       0.02862680
O       18.50421000      15.65324000      22.43851000      -0.03826180       0.04419050       0.04211030
H       19.98968000      15.03449000      21.89662000       0.06433590      -0.04432080      -0.05019500
H       19.24596000      16.63997000      23.83077300      -0.02846790      -0.00034974      -0.00406196
O        5.09824000       8.79542000      19.70830000      -0.00154197      -0.00216886       0.01509910
H        6.41052000       9.70112000      20.76760000      -0.01268350      -0.01474120      -0.03191190
H        5.48798000       8.58962000      17.91950000       0.01213720       0.01230500       0.01132280
O       19.36124000       9.72512000       7.18085000      -0.03281930      -0.01858820      -0.09395100
H       19.43967000       8.37436000       8.26326000       0.00282384      -0.03005120       0.06001450
H       18.46075000       8.48943000       5.75037000       0.02503950       0.06046880       0.02678590
O       21.61092000       2.46942000      11.86990000       0.02414040      -0.07226710      -0.02601800
H       23.07612000       1.18682000      11.42110000      -0.03831840       0.05767870       0.02630600
H       20.29802000       1.19722000      11.47240000       0.00050426       0.01905380       0.00487409
O       22.11342000      15.83916000       6.90488000      -0.03001790       0.03246700      -0.04869980
H       22.33405000      17.08446000       5.44503000       0.02247780      -0.01801190       0.02749660
H       20.33071000      15.53266000       6.44286000       0.00643837      -0.01425980       0.02180880
O        7.74142000      15.63416000      18.99900000       0.00287373       0.03302160      -0.01980120
H        6.33802000      15.56716000      17.85280000      -0.00302050      -0.00542272      -0.01004430
H        7.49492000      14.28976000      20.11690000       0.00170554      -0.02154860       0.02133790
O       10.13470000      22.08546000      24.15396000       0.01312400      -0.01982120       0.03282300
H       11.97700000      22.34286000      24.23466000      -0.01755790      -0.00247798      -0.01096200
H        9.95067000      20.73176000       0.83398000      -0.00862249       0.02193020      -0.02219860
O       14.91701000       2.29165000       7.94706000       0.00809862       0.01819740      -0.04517410
H       14.22278000       2.76231000       6.24799000       0.01280270      -0.01068190       0.02914960
H       13.60438000       1.56290000       8.90215000      -0.02008450      -0.00802590       0.01288940
O       13.60108000       4.09792000       2.58604000       0.08396950       0.02561580       0.04847690
H       11.94978000       4.17832000       2.98144000      -0.08568940      -0.00257330      -0.00722102
H       14.41648000       3.50892000       1.14534000      -0.01100960      -0.02725370      -0.04145820
O       15.13030000      19.48436000      10.45788000       0.04159680      -0.04406630      -0.02220540
H       16.13930000      18.04846000       9.44518000      -0.03607720       0.03944740       0.04519290
H       15.71700000      19.48196000      12.23298000       0.00131574      -0.00687781      -0.02798500
O        4.53542000      14.47800000      14.29242000      -0.00795825       0.02208310       0.01567870
H        2.82542000      15.06090000      14.95152000       0.02969240      -0.02468830      -0.01573660
H        4.62352000      12.80100000      13.56412000      -0.01856900       0.00903137       0.00166451
O        0.28262400       1.12792000       1.48260000      -0.01482950       0.01157950       0.02135120
H       24.19391600       1.13619000       3.23359000       0.02291870      -0.00888456      -0.02948290
H        2.02549000       1.73115000       1.48962000      -0.01005120      -0.00615087       0.00243787
O       18.95086000      23.40150000       8.82812000       0.10200500      -0.11889000       0.02929530
H       17.54546000      24.16140000       8.54842000      -0.12694800       0.09763270      -0.03293480
H       18.11986000      21.72200000       9.12122000       0.02484020       0.02016400       0.00526650
O       15.73246000      11.91960000       0.16632000      -0.04063280      -0.06198950       0.01928440
H       15.48266000      11.00060000      23.27390000      -0.01009040      -0.01067780      -0.00415338
H       16.55826000      13.28750000      24.21770000       0.04329170       0.06667650      -0.01712670
O        4.13748000      16.46714000       3.64938000       0.02666780       0.01584310       0.09139220
H        4.58478000      15.98524000       5.63378000      -0.01715100       0.02190310      -0.07748260
H        3.28118000      15.02564000       3.04948000      -0.00792415      -0.02677530      -0.01000370
O       19.15234000      20.52310000      14.66352000      -0.01340270      -0.04939860       0.07289240
H       18.37704000      22.08880000      14.47622000      -0.01488800       0.04125240      -0.01426540
H       18.31064000      19.95340000      16.48302000       0.02897480       0.01393840      -0.05844140
O        8.30774000       4.83868000       4.04897000      -0.03726810      -0.04672810       0.01183150
H        8.11584000       3.94458000       5.81649000       0.00126570       0.02537410      -0.04274420
H        7.00624000       3.83878000       2.94916000       0.04072210       0.02591190       0.02278650
O        4.87822000      17.81810000       9.15908000       0.11318000       0.22123500      -0.23237100
H        6.33822000      19.08660000       9.60058000      -0.03982760      -0.05640220      -0.01164970
H        4.48622000      16.94860000      10.32398000      -0.07084740      -0.17430900       0.24372200
O        7.48308000       8.44844000      14.67664000       0.02463620      -0.04276810       0.01838040
H        7.96808000       9.97838000      13.86704000       0.01146470       0.01498430      -0.01184480
H        9.09248000       7.44738000      14.89804000      -0.03030990       0.02133330      -0.00405065
O        5.63927000       1.91250000       0.45812800       0.00827454      -0.02621150      -0.08445120
H        5.18948000       2.23983000      23.10654000      -0.00093257       0.00085407       0.07456330
H        6.65867000       0.34817700       0.14744100      -0.01155450       0.02404020       0.01880750
O       20.22852000       4.47454000       0.34512000      -0.00107875       0.01970370       0.00993783
H       19.69542000       6.16288000       1.12732000       0.00093505      -0.04021550      -0.00395052
H       21.41672000       3.55258000       1.42312000      -0.00816008       0.01386770      -0.01018620
O       24.38990100      11.40734000       7.35282000      -0.00408456       0.03577550      -0.01820410
H       22.87489000      10.42344000       7.13372000      -0.00753358      -0.00406764       0.00420017
H       23.69603600      13.22744000       7.00392000       0.01467430      -0.03571640       0.01524140
O       10.36660000      12.17822000      11.89380000      -0.01538750       0.00443528      -0.06916860
H        9.78287000      12.28182000       9.91812000       0.01240960       0.00208066       0.06381960
H       11.89190000      11.16812000      11.79280000      -0.00036473      -0.00494170       0.00708276
O        8.76428000      21.02090000      19.18530000      -0.00745982       0.02135930      -0.01202750
H        8.29988000      19.31140000      19.36210000      -0.00742214      -0.03125230      -0.00519686
H        9.00428000      21.46290000      20.92310000       0.01290210       0.01090700       0.01654650
O        7.29972000      10.09542000       2.78444000       0.13212400      -0.03868580      -0.01713530
H        7.53042000       8.28512000       3.09124000       0.00494795       0.00607787       0.00152137
H        5.69652000      10.35902000       3.02634000      -0.12985900       0.02850400       0.01455820
O       13.77300000       9.31482000      20.32650000       0.00294877      -0.06722540       0.01694600
H       14.59540000      10.22512000      19.02110000       0.01098190      -0.00252435      -0.00945986
H       14.31840000       7.37532000      20.14250000      -0.01681110       0.06703620      -0.00349262
O        3.93699000      23.63936000      18.01070000      -0.02357230      -0.00657715      -0.01231010
H        2.49960000      22.34436000      17.82020000       0.04098380       0.01356710       0.01881820
H        5.67020000      23.05946000      18.42920000      -0.02680240      -0.01283010      -0.00642775
O       23.88235600      19.22030000       3.42035000      -0.01462690       0.00252586      -0.02447870
H        0.94926100      18.66390000       3.38237000       0.01212800      -0.00629702       0.00197408
H       23.43653000      19.71630000       1.62673000       0.00440112      -0.00384964       0.01950130
O        1.65198000       0.27133300      13.35010000       0.00579810       0.03105040       0.07009860
H        1.87644000      24.11382900      11.80650000       0.02812310      -0.03123960      -0.01803770
H        2.69286000      24.55314700      14.97270000      -0.01813130      -0.00621457      -0.05503260
O       15.05376000       3.88144000      18.42286000       0.04633800      -0.04040050       0.07407120
H       16.91856000       4.22404000      18.17846000      -0.02198360       0.00586843      -0.02255830
H       15.56976000       2.71034000      20.22586000      -0.03569400       0.03724350      -0.04406450
O        7.24572000       2.30084000       8.33048000      -0.09012730      -0.04081960      -0.01411230
H        5.75259000       3.10404000       9.25048000       0.03418540      -0.00257888      -0.01204970
H        6.17330000       0.72984000       7.55718000       0.04085380       0.04797190       0.02840070
O       12.96036000      15.40432000       3.69410000      -0.01140320      -0.03715650      -0.04342060
H       12.28576000      14.03942000       2.49762000       0.02999980       0.02744880       0.03224500
H       11.62746000      16.62642000       3.40734000      -0.01362770       0.01131000       0.00892135
O       18.06750000       9.75042000      16.93740000      -0.00769194       0.03196610       0.01196150
H       16.60950000       9.85682000      15.84250000       0.01057680      -0.01048970      -0.01077640
H       18.82280000       8.12562000      16.84620000      -0.00004810      -0.01941040      -0.01086440
O        7.66748000      12.54778000       7.43068000      -0.02935430      -0.00161189       0.06528330
H        7.94808000      11.64368000       5.92669000      -0.00193103      -0.01948420      -0.02072950
H        6.40388000      11.61088000       8.62205000       0.02626000       0.02222040      -0.03667150
O        3.08416000       3.39027000      20.87770000      -0.03643200      -0.05452110      -0.00794288
H        2.66156000       1.92834000      19.65940000       0.02225330       0.03339880       0.02722160
H        4.36456000       4.37390000      20.19150000       0.02259520       0.02620860      -0.02333090
O        3.69868000      10.54758000      10.84802000      -0.03178300      -0.05262020      -0.06375110
H        4.12868000       8.67058000      11.02842000      -0.01647820       0.04581980      -0.00045110
H        2.22998000      10.53408000       9.32222000       0.04548750       0.00827325       0.05909710
O       16.69850000      14.64830000       7.31752000      -0.02602970      -0.02925060      -0.03152600
H       17.41720000      12.90050000       7.79842000      -0.02476850       0.03815140      -0.01897340
H       15.18830000      14.52390000       5.94052000       0.05372860      -0.00375841       0.05120940
O        3.34538000      22.74925000       8.27532000      -0.05868330       0.01719080      -0.05821700
H        3.42338000      20.89332000       8.19552000      -0.00144161       0.01145520       0.00183536
H        1.83248000      23.26121000       6.89872000       0.05208010      -0.02098450       0.05586410
O       17.76542000       6.15181000      10.59132000       0.00196688      -0.01679980      -0.02629380
H       17.10192000       4.99899000       9.32602000      -0.02091540       0.00290006       0.00337875
H       19.32372000       5.27017000      10.72752000       0.02326170      -0.00106379       0.02206470
O       16.33287000      18.97026000      18.51379000      -0.02822020       0.00633248      -0.04342830
H       16.89149000      17.52876000      19.41811000       0.00812253      -0.02025460       0.01264840
H       15.18056000      18.37886000      17.10944000       0.01404620       0.00377012       0.03254330
O        4.24674000       5.09008000      12.19508000       0.04260330      -0.00984816       0.02533660
H        5.82924000       5.72128000      13.17678000      -0.04687920      -0.01308180      -0.02289270
H        3.69374000       3.45468000      12.92738000       0.00042828       0.02166380      -0.00694537
O       10.65780000       0.03200600      10.86400000       0.04356710      -0.05332400       0.07699640
H       10.36390000      23.98702000      12.72360000       0.03291130       0.00282772      -0.05510090
H        9.18408000       0.88417300      10.80920000      -0.06611040       0.04676730      -0.03030740
O       15.25516000      21.32766000      22.91692000       0.01872600      -0.02419200      -0.01823100
H       15.35016000      20.75244000      21.02282000       0.00313311       0.00527453       0.05403520
H       16.31096000      20.16927000      24.06682000      -0.02112200       0.02719150      -0.03135060
O       12.16220000      16.19013000      15.30099000      -0.01457610       0.07790100       0.08407590
H       10.50250000      16.23093000      16.20881000       0.02928280      -0.01516500      -0.01940480
H       12.17720000      15.10984000      13.99818000      -0.01429900      -0.05880370      -0.06338750
O       21.16040000      16.37630000      12.46200000      -0.01532340      -0.03589840       0.09187420
H       20.39600000      17.86140000      13.10180000      -0.00683962       0.02115220      -0.00042993
H       21.60760000      16.50880000      10.86200000       0.02254030       0.01274960      -0.10133700
O       11.81640000      21.98640000      14.84204000      -0.00389496      -0.06158080      -0.02595330
H       10.56790000      21.77160000      16.11109000      -0.00958179       0.00571234       0.02950020
H       11.75870000      20.14750000      14.16768000       0.00941652       0.04713330       0.01069080
O       23.10250000      23.59162000       5.57762000      -0.02000340      -0.04210690       0.03819980
H       21.82060000      23.25802000       6.97242000       0.01733520       0.02433610      -0.02525340
H       23.32560000      21.76022000       5.05332000       0.00511738       0.02794720      -0.01023740
O       17.09246000       7.68676000       2.73769000      -0.03590250       0.03285410      -0.00921508
H       16.46821000       9.41772000       1.97596000       0.02042430      -0.04107350       0.01929530
H       15.51906000       6.56495000       2.82203000       0.02642330       0.01534390      -0.00024228
O       16.14690000       0.27248000      13.61600000       0.00910384       0.03718780       0.04444090
H       14.53160000      24.19206000      13.73690000      -0.01948500      -0.01846260      -0.00726742
H       15.97600000       1.39848000      15.15820000       0.01279260      -0.01698470      -0.03202060
O        0.19378500      16.50500000      15.83622000       0.01809720      -0.01573770       0.13436700
H       23.72605400      15.56710000      17.23342000       0.02706560       0.01507250      -0.05096520
H       24.06472800      16.15980000      14.38032000      -0.05659040      -0.01257370      -0.07990280
O       17.54002000      17.91852000       2.01313000      -0.12091900      -0.05638390      -0.08867390
H       18.01832000      18.36912000       3.50917000       0.05034160       0.04355320       0.12163300
H       15.63342000      17.20042000       2.55405000       0.06504460       0.01266650      -0.02691540
O       21.61650000      13.41730000      18.78716000       0.12497900       0.06754580       0.06547470
H       23.05430000      12.34920000      19.46286000      -0.02460260       0.01917980      -0.00713146
H       20.49360000      12.36670000      18.20206000      -0.09222820      -0.08418450      -0.05489110
O        8.90538000      18.34052000       3.28707000       0.06578700       0.03335320       0.01991000
H        7.33298000      17.65252000       3.01575000      -0.05437850      -0.02490270      -0.00372610
H        9.10618000      18.74962000       5.11008000      -0.00854632      -0.00024489      -0.01431840
O        9.97411000      19.74196000       8.34902000       0.02415290      -0.01845460       0.01392970
H       11.40170000      18.46336000       9.01092000      -0.04746620       0.06955450      -0.01413190
H       10.01350000      21.60116000       8.85122000       0.02383900      -0.04518930       0.00156897
O        2.33974000      11.96772000       2.71181000       0.00751753       0.00078609       0.00963612
H        1.09845000      11.53302000       3.93364000      -0.00610490       0.00186817       0.03157530
H        1.69342000      11.05322000       1.35958000      -0.00554710      -0.01255520      -0.04600100
O       14.21558000       8.75638000      12.98710000      -0.08202350      -0.01819330       0.10050400
H       13.25948000       7.22078000      14.17650000       0.03660490       0.05681500      -0.05505490
H       15.13564000       7.84958000      11.85930000       0.04279070      -0.03528730      -0.03897940
O       19.72221000       4.73348000      16.80240000       0.04394400      -0.02686720       0.01337650
H       21.10385000       4.70521000      18.35000000      -0.02998950      -0.00175753      -0.05763640
H       20.18180000       3.60084000      15.27340000       0.00065682       0.03241160       0.04510370
O        0.67142000      10.49358000      21.63090000       0.01607540       0.00511235      -0.01375780
H       24.08750000       9.23388000      21.17095000       0.01058650      -0.00519036       0.00066540
H        2.32292000      10.06028000      20.71816000      -0.02874770      -0.00157307       0.01307910
O       22.94400000       5.63800000      20.63682000       0.00916103       0.00710727      -0.00796923
H       21.93560000       5.46542000      22.13422000      -0.00236293      -0.00771088       0.01353750
H        0.03732000       5.20105000      21.07362000      -0.01140220      -0.00553942      -0.00519466
O       15.83400000       1.78652000      23.12322000       0.02871520      -0.01315500       0.00172522
H       17.58030000       2.46422000      23.85092000      -0.04391740      -0.03273100      -0.02176080
H       15.48890000      24.44310000      22.97212000       0.03028260       0.04520200       0.01592210
O        8.49888000      11.51200000      22.14860000      -0.05796810       0.05621720      -0.14008300
H       10.11908000      11.03780000      21.82490000       0.07422940      -0.01185790      -0.06907550
H        8.85418000      11.04640000      23.62260000      -0.00997446      -0.04640310       0.21450100
