192
TotEnergy=-1103.47009000 cutoff=-1.00000000 nneightol=1.20000000 pbc="T T T" Lattice="24.55108000       0.00000000       0.00000000      -0.00000100      24.55108000       0.00000000      -0.00000100      -0.00000100      24.55108000" Properties=species:S:1:pos:R:3:force:R:3:Z:I:1
O              24.49220000     -1.30219000    -35.88430000      0.00500248     -0.03251250     -0.04157320       8
H              22.60830000     -1.81791000    -35.62960000      0.05401570     -0.01101500     -0.01093820       1
H              25.49150000     -2.43686000    -37.29940000     -0.05087470      0.03435870      0.05924830       1
O              51.44380000     48.73210000     -1.57739000     -0.00173635      0.01197230      0.04929130       8
H              50.02340000     49.85410000     -1.05938000      0.01255860     -0.01481690     -0.02074310       1
H              51.43070000     48.13910000     -3.24063000     -0.00978007      0.00346642     -0.03082220       1
O              13.17060000      0.28156400     17.45710000      0.00172873      0.02488300     -0.06761690       8
H              13.92250000      1.25042000     18.74130000     -0.00101567     -0.00406262      0.03847760       1
H              12.30180000     -1.24009000     17.48280000     -0.00323889     -0.02273420      0.03271790       1
O              -2.20507000    -13.14600000     -1.93602000      0.02907040      0.00222719     -0.04825690       8
H              -1.18198000    -13.62350000     -3.59465000     -0.03399880     -0.00180007      0.05019290       1
H              -1.97402000    -11.32590000     -1.84169000     -0.00779551     -0.00003471      0.00355290       1
O               4.80839000     34.66730000     15.52340000     -0.08837410      0.05366690     -0.01478920       8
H               5.54186000     34.39040000     17.00990000      0.04482080     -0.01425140      0.08392990       1
H               5.80134000     33.95600000     14.33390000      0.04388790     -0.03664450     -0.06178460       1
O              -6.70630000     11.57020000      6.91349000      0.00565979     -0.05023830     -0.01126570       8
H              -7.22092000     13.26750000      7.07175000     -0.01371000      0.02060440     -0.01466450       1
H              -7.58322000     10.57750000      5.54814000      0.00581529      0.02864690      0.02565930       1
O              42.80760000     29.52490000     14.05710000      0.10089700      0.20846700     -0.00955177       8
H              44.51740000     29.41880000     13.36700000     -0.00709064     -0.00277943      0.00417015       1
H              42.21440000     28.08220000     14.02190000     -0.09250240     -0.21067100     -0.00938954       1
O               3.38092000    -34.04170000      7.66008000      0.06441740     -0.02951230      0.01476410       8
H               5.09308000    -35.17540000      8.01592000     -0.06610650      0.04333780     -0.00292711       1
H               3.31457000    -32.66280000      8.93082000      0.00583184     -0.01553750     -0.01011260       1
O              32.39190000    -33.89430000     17.98380000      0.01905560     -0.03138790     -0.00620972       8
H              30.70200000    -34.43210000     17.78500000     -0.02436130      0.00225937     -0.00067596       1
H              33.19980000    -35.55870000     18.18720000     -0.00115739      0.02214660      0.00763135       1
O              10.89500000    -28.01220000    -25.40590000      0.02867350     -0.03259100     -0.00132247       8
H              12.74340000    -28.45280000    -25.90190000     -0.04135610      0.01947570      0.02014600       1
H              10.32230000    -29.38050000    -24.24280000      0.00943688      0.01455680     -0.01583110       1
O             -15.48420000      3.79184000      9.86291000      0.10010100     -0.02880150      0.01437670       8
H             -15.27950000      2.04267000      9.10748000     -0.00612364      0.01991110      0.00846651       1
H             -13.52860000      4.19278000     10.48590000     -0.08197740     -0.01363940     -0.02813500       1
O             -10.85410000     28.09900000     51.80140000     -0.01793830      0.05782490      0.03422020       8
H             -12.49370000     27.83700000     51.16400000     -0.01900350     -0.01013370     -0.01418110       1
H              -9.83810000     26.78300000     51.35100000      0.03819200     -0.04807130     -0.02101550       1
O              11.36620000    -30.91130000    -16.56980000     -0.00901625     -0.03015360     -0.07197560       8
H              10.97100000    -31.73870000    -18.36700000      0.00466840      0.03481400      0.04916670       1
H              11.82910000    -32.40820000    -15.70260000     -0.00423768     -0.00992238      0.01904120       1
O              26.45930000     14.78110000     39.50910000     -0.02191100      0.03894880      0.01173770       8
H              24.92890000     14.05430000     40.19550000      0.00488369      0.00179437     -0.01071030       1
H              27.63850000     13.50670000     39.32270000      0.02288030     -0.03752620     -0.00493570       1
O               3.76670000      2.35790000      4.18230000     -0.06155220     -0.00122582      0.06123770       8
H               3.94721000      1.07699000      5.89563000     -0.00104970      0.02183750     -0.05079680       1
H               1.85972000      2.80970000      4.55213000      0.06019930     -0.01212740     -0.02099490       1
O             -33.83520000     24.36080000     31.55410000     -0.10315200      0.01925050      0.03265700       8
H             -32.24330000     24.01010000     31.08060000      0.07350920     -0.00240832     -0.03990680       1
H             -34.84950000     25.57250000     30.56780000      0.03134160     -0.01717660      0.00709711       1
O             -31.90840000     11.31820000     23.14120000     -0.00691777     -0.00748491      0.00589247       8
H             -33.21900000     10.58800000     21.98830000      0.04204110      0.01048690      0.00840859       1
H             -30.01440000     11.08500000     22.84890000     -0.03641960     -0.00335643     -0.01496070       1
O             -20.24000000     64.64420000    -22.26220000      0.01189930      0.02004110      0.04561960       8
H             -20.08420000     64.91930000    -20.33280000     -0.01825170     -0.01628970     -0.04421560       1
H             -20.22080000     62.86720000    -22.58410000     -0.00149331     -0.00994719      0.00423705       1
O              69.31550000     20.62410000     38.54090000     -0.03550830      0.11370100     -0.07203370       8
H              68.00570000     22.23840000     38.59250000      0.03687570     -0.07085960     -0.00222110       1
H              69.16450000     19.56600000     39.87080000     -0.01224020     -0.04411280      0.07141780       1
O              60.23990000    -12.21540000      0.79369400     -0.00813886     -0.00351630     -0.00844110       8
H              59.11550000    -12.76020000     -0.58826300      0.01472530     -0.00119194      0.02057930       1
H              61.12770000    -13.61120000      1.63533000     -0.00651318      0.00245970     -0.01020890       1
O              27.45350000     18.87260000    -12.83590000      0.03249010      0.09233480     -0.07653260       8
H              28.93840000     20.03130000    -12.46620000     -0.02268660     -0.03296760     -0.00118392       1
H              27.25420000     17.65540000    -11.68630000     -0.00792782     -0.06089720      0.07215430       1
O             -13.08220000      5.94768000     64.00710000     -0.00339007      0.00382675      0.04963080       8
H             -12.24140000      7.20342000     65.23490000     -0.01728760     -0.02874370     -0.02621190       1
H             -14.08480000      4.85335000     65.19180000      0.02234080      0.02057580     -0.01451610       1
O               9.28670000      1.61011000     -0.36646800     -0.04485430      0.06117840      0.02479100       8
H               7.66086000      2.23013000      0.50926500      0.04409060     -0.03186610     -0.02352730       1
H               9.61261000     -0.11279300     -0.08948300     -0.00205170     -0.03222870      0.00286621       1
O              44.85170000     -0.32631400     30.00720000      0.02381460     -0.08326730     -0.00454477       8
H              45.48440000      1.29518000     30.11220000      0.01853280      0.04940490     -0.00294101       1
H              46.41610000     -1.48972000     29.86050000     -0.04168910      0.02558060      0.00866023       1
O              -1.11206000     60.37060000     32.55990000      0.03694410      0.05063540     -0.04592930       8
H              -2.39346000     60.17820000     31.31530000     -0.02660640     -0.01494080      0.00305792       1
H              -0.12924800     61.65950000     31.43870000     -0.01008350     -0.03391290      0.04960800       1
O               8.96914000     40.40930000     12.80990000      0.02319770      0.02414860      0.05668570       8
H               8.26136000     39.58440000     11.41650000     -0.01338770     -0.02604360     -0.00705181       1
H               8.74780000     39.71420000     14.59700000     -0.00607838      0.00963705     -0.05117470       1
O             -14.94770000     20.08700000     18.28740000     -0.01918730     -0.02887050      0.00814206       8
H             -16.19870000     18.58870000     18.11210000      0.04322080      0.03851650      0.00724902       1
H             -14.58170000     20.24030000     20.11540000     -0.01101080     -0.00055451     -0.01233930       1
O              29.22090000     34.01910000     50.83730000      0.00703007     -0.01422570      0.02384630       8
H              29.68300000     33.22460000     52.47480000     -0.00341869      0.01258670     -0.02368180       1
H              27.71240000     33.10880000     50.36580000     -0.00507886      0.00595028      0.00389503       1
O               9.53859000     29.62660000     20.44790000      0.07201610      0.02367090      0.00228400       8
H              11.39540000     29.43840000     21.09280000     -0.02745060      0.02824420     -0.03488030       1
H               9.34757000     28.21860000     21.48590000     -0.04367500     -0.04463770      0.02216230       1
O               3.21055000    -24.52040000     17.15190000      0.05317980      0.01117790     -0.01064790       8
H               2.12643000    -25.08820000     15.68950000      0.03281790      0.00409678      0.01395200       1
H               5.20442000    -24.14790000     16.83880000     -0.08599520     -0.01944580     -0.00182678       1
O               1.05755000     19.71110000      0.61349300      0.04409940     -0.01006420     -0.00390753       8
H               2.68741000     18.59040000      0.62297000     -0.04934430      0.04262490     -0.00098836       1
H               1.40197000     21.54230000     -0.01152000      0.00767660     -0.04234610      0.00770687       1
O              -0.71416600      3.62775000     13.45460000      0.04560860      0.02151430     -0.04904750       8
H               0.51867900      4.49956000     12.02090000     -0.04914770     -0.01651780      0.05170570       1
H              -0.19938200      1.83158000     13.35610000     -0.00786662      0.00078127     -0.00777532       1
O             -34.42970000     52.61360000    -27.95190000      0.00678428     -0.03043980      0.05714280       8
H             -33.15980000     53.64120000    -28.69440000      0.01824110      0.01674850     -0.00975921       1
H             -33.67350000     51.99210000    -26.27070000     -0.02118130      0.01671980     -0.04745950       1
O               5.86692000     55.36810000    -17.74090000      0.02445850     -0.01727700     -0.00421077       8
H               7.39572000     54.45570000    -17.00060000     -0.03281450      0.01813960     -0.01600620       1
H               5.20664000     54.16980000    -19.04200000      0.00357742     -0.00116460      0.01242300       1
O             -39.59050000     41.31330000      2.59324000      0.03347120     -0.03753000      0.00328340       8
H             -38.77530000     39.55950000      2.15608000     -0.01863330      0.04001660      0.00238583       1
H             -41.34660000     40.87680000      2.71350000     -0.00854359      0.00262389     -0.00678973       1
O              14.29760000     33.83660000     18.30910000     -0.03286230      0.01822110     -0.01082480       8
H              15.92320000     33.33020000     17.86690000      0.03553030     -0.01741310      0.00382208       1
H              14.05650000     35.20580000     17.09290000     -0.00654014      0.00713628      0.00973105       1
O             -16.48630000    -12.59840000      8.66510000     -0.00809812     -0.01386760      0.09061860       8
H             -16.26240000    -13.13740000      7.07233000      0.01153770     -0.02326600     -0.07527970       1
H             -16.34000000    -14.25300000      9.72275000     -0.00550403      0.04241090     -0.01572370       1
O             -49.65650000      3.68640000     18.50630000     -0.10187900      0.06174750     -0.05780560       8
H             -48.33500000      2.74015000     18.18460000      0.11186900     -0.07701760      0.00748842       1
H             -49.91840000      3.63522000     16.39870000     -0.00753753      0.02208760      0.05083280       1
O             -23.42490000    -17.77920000     34.05250000     -0.04026950      0.00282683      0.02237490       8
H             -22.01060000    -18.11970000     33.06440000      0.03618160      0.00027783     -0.02048900       1
H             -24.04410000    -16.06030000     33.70850000      0.00552659     -0.00766846     -0.00100819       1
O              17.19650000     16.15160000     25.28270000      0.00031361      0.03566760      0.00467114       8
H              16.25730000     16.26080000     26.78800000     -0.00196510      0.01030770      0.03037170       1
H              16.76040000     14.55460000     24.72040000     -0.00821730     -0.04949700     -0.02952980       1
O             -20.73050000     -1.09440000     32.01180000     -0.04556280      0.02771790      0.01043660       8
H             -19.07390000     -1.72938000     32.13470000      0.01734560     -0.02132780     -0.00396324       1
H             -22.25420000     -2.05217000     31.51140000      0.02494090     -0.01068120      0.00517078       1
O              42.46620000     10.40300000     36.78140000     -0.00081812      0.02574150      0.05281940       8
H              41.95430000      8.78953000     37.29950000     -0.00269726     -0.03057350     -0.00658366       1
H              42.58750000     10.63860000     35.05210000     -0.00109445     -0.00501605     -0.05344740       1
O              -4.45114000    -32.37730000     -6.92464000     -0.01692640     -0.00207168     -0.05751970       8
H              -4.13596000    -32.10040000     -5.22825000      0.01446780     -0.00447040      0.04593050       1
H              -4.07027000    -34.07580000     -7.53925000      0.00042728      0.01092890      0.01442010       1
O              56.98110000    -16.61720000    -12.55640000      0.02781840      0.01481910      0.04291730       8
H              58.13970000    -17.76800000    -11.55640000     -0.00547701      0.03303710     -0.00767221       1
H              56.28510000    -17.74650000    -13.67490000     -0.02812410     -0.02808240     -0.03054620       1
O               8.85960000      0.95582100     14.94000000     -0.09016070     -0.02288550     -0.00356401       8
H               8.91056000      1.87249000     13.45970000     -0.00303028      0.02683250     -0.04009000       1
H              10.44450000      0.94542000     15.54740000      0.08423000      0.00014928      0.03964520       1
O             -33.00520000     -3.73857000     47.40220000     -0.01100050     -0.04366470      0.04309660       8
H             -33.14450000     -4.07533000     45.63770000      0.00118547     -0.01048410     -0.01982910       1
H             -33.05570000     -5.46954000     48.38240000      0.01422670      0.04489820     -0.03618760       1
O              14.26100000    -11.36310000     -9.93129000      0.02845690     -0.03002130     -0.03530340       8
H              13.55310000     -9.91872000    -10.86220000      0.01052040     -0.02563480      0.00554047       1
H              15.48840000    -12.59780000    -11.07560000     -0.03782630      0.05742950      0.02776000       1
O              21.18800000     17.42800000      9.52240000      0.04103780     -0.00863938      0.11830700       8
H              21.00290000     18.28500000     11.35260000     -0.02098210      0.01064770     -0.06264420       1
H              22.37870000     16.32990000     10.64320000     -0.02163640      0.00340788     -0.05766210       1
O              14.81510000     19.40880000     -6.94991000     -0.08231060      0.08104000      0.01339930       8
H              12.72050000     19.70050000     -7.11338000      0.07387530     -0.04271960      0.00483488       1
H              15.76600000     17.98970000     -7.26821000      0.00508380     -0.04899360     -0.01483560       1
O              24.15780000     45.04980000     30.65630000     -0.02331890      0.02516770      0.04870080       8
H              23.39610000     43.69560000     31.61820000     -0.00608151      0.00733398      0.01349820       1
H              24.84090000     44.19920000     29.33920000      0.02991180     -0.02691640     -0.06838820       1
O              -9.89898000      9.03359000      2.93801000      0.00224016      0.02012230      0.00476665       8
H              -8.77210000      9.47231000      1.53240000     -0.00539304     -0.01288270      0.00346010       1
H             -10.22890000      7.25655000      3.12951000      0.00896586     -0.00729421     -0.01082270       1
O              16.35140000    -24.77360000     12.34070000     -0.06522710     -0.05940030      0.08641850       8
H              16.49360000    -24.81720000     10.63340000      0.00421489      0.00242672     -0.07443410       1
H              14.81190000    -26.10540000     12.62550000      0.06428370      0.05828770     -0.00622137       1
O              -2.79365000     12.39330000     39.70620000      0.06607630      0.06142370      0.07578180       8
H              -2.33909000     10.85810000     40.39160000      0.01941380     -0.03845880      0.03082390       1
H              -3.82395000     11.89160000     38.52740000     -0.08669770     -0.02780430     -0.10026200       1
O              45.98230000     41.49370000     -1.67383000      0.01757210     -0.00977451     -0.01669570       8
H              47.64220000     41.99900000     -0.97643100     -0.02926730      0.00513627      0.00843661       1
H              44.54300000     41.11320000     -0.57304600      0.02263380      0.01257810      0.00798917       1
O              24.64240000      8.86868000    -30.29200000      0.06885190      0.17370700     -0.02307620       8
H              26.36440000      9.55053000    -31.11850000     -0.06687880     -0.03441190      0.02538340       1
H              24.60500000      7.23077000    -30.43450000     -0.00028201     -0.13691700     -0.01128650       1
O             -15.58550000     47.83220000      8.17462000      0.00068329     -0.03039170     -0.01933000       8
H             -14.82980000     46.74250000      6.84803000     -0.00579857      0.02088580      0.02395310       1
H             -16.08620000     46.61590000      9.57072000      0.01244970      0.01804150     -0.00764395       1
O               7.62179000    -27.86690000     36.83520000     -0.01505300      0.03826590      0.01274180       8
H               8.51594000    -29.35310000     37.24680000      0.01237020     -0.02153170      0.01123900       1
H               8.02967000    -26.40620000     38.02130000     -0.00154042     -0.02849950     -0.01347690       1
O              -2.09132000     29.06210000      5.18447000      0.00323049     -0.01247580      0.10164300       8
H              -1.40740000     29.81550000      6.87794000     -0.01974600     -0.02266400     -0.05052010       1
H              -1.34393000     30.03860000      3.95914000      0.01573090      0.03507360     -0.04327330       1
O              -8.03954000     -7.48983000      6.38047000      0.02588120      0.00417207      0.03504650       8
H              -9.62026000     -7.11977000      7.27053000      0.01680440      0.00784151     -0.00720592       1
H              -6.56443000     -7.07339000      7.57556000     -0.03860780     -0.00942905     -0.02916930       1
O              -5.99501000      6.24656000     18.72330000      0.06305250     -0.04878940      0.02452890       8
H              -4.43694000      5.13267000     19.47920000     -0.06170850      0.04934370     -0.03487440       1
H              -6.03231000      5.76347000     16.88290000      0.00295116      0.00072877      0.02032240       1
O              23.88760000    -16.90470000      1.40716000     -0.00928831      0.02439740      0.00881665       8
H              24.21090000    -18.14760000      0.16307000     -0.00861941     -0.00982494     -0.01362860       1
H              22.60130000    -15.70320000      0.74580200      0.02660970     -0.01823300      0.00086218       1
O              22.56270000      2.50558000     48.18700000     -0.00352606     -0.00435036     -0.00879861       8
H              21.06140000      1.45429000     48.39820000      0.00447762      0.00917221      0.00786160       1
H              22.72760000      2.78971000     46.38500000      0.00092345     -0.00155867      0.00039813       1
O              17.81690000     24.86440000     50.01510000      0.02192800     -0.07473160     -0.00080238       8
H              18.42920000     23.80500000     51.55660000     -0.01090510      0.04322090     -0.03119390       1
H              17.84550000     23.38240000     48.71590000     -0.01667210      0.03741920      0.02882700       1
O             -17.47610000     10.18250000     20.90260000      0.02661860     -0.01326760     -0.01871050       8
H             -16.32890000      8.70275000     20.62700000     -0.02287160      0.01303250      0.01122470       1
H             -18.80200000      9.66048000     22.00650000      0.00183062     -0.00549339      0.00815300       1
