192
TotEnergy=-1103.50927000 cutoff=-1.00000000 nneightol=1.20000000 pbc="T T T" Lattice="24.47920000       0.00000000       0.00000000      -0.00000100      24.47920000       0.00000000      -0.00000100      -0.00000100      24.47920000" Properties=species:S:1:pos:R:3:force:R:3:Z:I:1
O              23.77550000     -4.00692000    -28.78800000     -0.01251670      0.04635010     -0.04191060       8
H              22.55830000     -3.95320000    -30.31370000      0.01674140     -0.01637970      0.03931700       1
H              24.31980000     -5.55115000    -28.08200000      0.00113861     -0.02645540      0.00135761       1
O              51.01020000     43.21890000      3.36183000      0.02757170      0.03900840      0.07331860       8
H              52.66640000     43.83510000      2.87687000      0.01058150      0.01404300      0.02142090       1
H              50.75740000     42.57730000      1.83733000     -0.04085540     -0.05118790     -0.09403360       1
O              10.49220000      2.29879000     10.82080000      0.01837550      0.01374190      0.03379330       8
H              10.94930000      3.91974000     11.87140000     -0.00498591     -0.05037240     -0.02905570       1
H              10.94810000      0.65733000     11.67600000     -0.00747620      0.03850140     -0.00128889       1
O              -5.37658000     -8.68937000      2.08767000      0.02061350     -0.02687720     -0.00478038       8
H              -4.00589000     -8.47163000      0.91519200     -0.00334803      0.00073773     -0.00140295       1
H              -6.20807000     -7.11934000      2.29052000     -0.01430010      0.02052790     -0.00204772       1
O               8.86383000     30.48030000     18.93480000      0.00244819     -0.01448840     -0.01076440       8
H               8.71080000     32.12750000     19.61910000     -0.00624352      0.01556830      0.00851597       1
H              10.65490000     30.21560000     18.67700000      0.00326958     -0.00235744     -0.00511641       1
O              -6.23248000     12.03870000      9.85215000     -0.03717040     -0.01299510     -0.01817920       8
H              -7.71305000     10.79960000      9.24215000      0.06028820      0.02818650      0.01390820       1
H              -4.90925000     12.26830000      8.52065000     -0.02676120     -0.01433570      0.00657358       1
O              45.68060000     27.42380000     11.94510000     -0.10344300      0.06469940     -0.00840821       8
H              47.02270000     26.76320000     12.61270000      0.11391100     -0.04608540      0.05946690       1
H              45.57330000     26.69940000     10.38480000     -0.00905399     -0.02119450     -0.05270960       1
O               1.61365000    -27.97840000     10.60520000      0.01501740     -0.09022380      0.03912880       8
H               1.21800000    -30.07560000     10.53060000      0.01628560      0.06933150      0.00177486       1
H               0.54736400    -27.16220000      9.49376000     -0.02634700      0.01714380     -0.03208040       1
O              30.21750000    -34.40790000     19.40570000     -0.00653740      0.08325470     -0.00623465       8
H              31.31100000    -32.80480000     19.28550000     -0.04145420     -0.02419820     -0.00844089       1
H              31.51350000    -35.50370000     19.65550000      0.04304560     -0.05865240      0.01820750       1
O               9.57021000    -26.91120000    -27.10190000      0.07134690      0.02029810     -0.09072280       8
H              11.41780000    -27.43640000    -27.21440000     -0.03546630      0.01582250      0.01007050       1
H               8.88336000    -27.37230000    -25.63210000     -0.03511160     -0.03465100      0.08479480       1
O             -10.74320000      0.65158800      6.83342000     -0.00450459      0.02775460     -0.05274930       8
H             -11.96230000      1.45488000      8.04754000      0.01906070      0.00136132     -0.02455310       1
H             -10.62510000      1.56160000      4.91955000     -0.02138270     -0.02570390      0.07017500       1
O             -11.54880000     27.53550000     51.14070000     -0.05667910     -0.02952310     -0.05536600       8
H             -13.78010000     27.65170000     51.14460000      0.06669400     -0.00392273     -0.01366820       1
H             -10.98120000     26.76290000     49.32070000     -0.01999790      0.03090100      0.06401320       1
O              15.30270000    -29.13840000    -13.02370000     -0.08125320      0.00103618      0.01772110       8
H              14.68900000    -30.46510000    -14.25340000      0.01423730      0.01449020      0.02077780       1
H              13.43040000    -28.57610000    -12.09070000      0.07011790     -0.00961361     -0.02850180       1
O              25.88500000     15.74480000     35.30870000     -0.01789710      0.05296470      0.06905060       8
H              26.01130000     14.97340000     33.77620000      0.01933610     -0.04281640     -0.05084150       1
H              26.78580000     15.06000000     36.75900000     -0.00160389     -0.00535410     -0.01824550       1
O              -1.19890000      2.39907000      2.39654000      0.00385380     -0.03572800      0.00568463       8
H              -1.07123000      0.95767900      3.63714000     -0.01483710      0.01765430     -0.00440742       1
H              -0.83936300      1.40337000      0.91358200      0.01571890      0.00563337     -0.01126900       1
O             -26.34790000     22.78040000     30.28880000     -0.06261480     -0.01882200      0.03178870       8
H             -25.68120000     21.25890000     29.67420000      0.02843600     -0.01905300     -0.01729740       1
H             -28.12960000     21.99160000     30.95980000      0.04548350      0.04610600     -0.01565640       1
O             -32.92510000     11.22990000     25.56040000      0.04159790      0.04086170      0.06405030       8
H             -33.64090000     10.71000000     24.10890000     -0.03215160     -0.02345610     -0.07353870       1
H             -31.64270000     12.50210000     25.08770000     -0.01388750     -0.01460830      0.01011390       1
O             -16.27820000     63.66090000    -21.40000000      0.00066757     -0.01985320      0.00319244       8
H             -16.31430000     63.50330000    -19.59070000     -0.00882815      0.01305880      0.01656810       1
H             -16.69510000     61.94650000    -21.87700000      0.00142346      0.00793892     -0.01063370       1
O              69.51520000     20.63770000     40.85470000      0.08116560      0.02439750      0.01354790       8
H              69.72870000     21.78580000     39.51790000     -0.00649553      0.00765132     -0.01532010       1
H              67.99510000     19.81960000     40.86650000     -0.06817720     -0.02791250     -0.00213149       1
O              56.59700000    -20.83500000      1.41962000     -0.02070430     -0.03076020     -0.00929236       8
H              55.40440000    -21.48680000      2.81579000      0.01594090      0.01580720     -0.01454560       1
H              55.94780000    -21.76150000     -0.14398000      0.02034670      0.02418430      0.02072080       1
O              32.13690000     20.27500000    -14.01900000      0.01405230     -0.00395360     -0.00305738       8
H              31.56290000     18.59510000    -14.31630000      0.00622257     -0.02168210     -0.00841056       1
H              30.63210000     21.03280000    -13.47330000     -0.02715960      0.02232400      0.00528460       1
O             -12.92870000      7.64383000     60.29160000      0.01346800     -0.00056708      0.02020400       8
H             -14.41060000      8.08954000     59.38070000     -0.00447128      0.00057971     -0.01849130       1
H             -11.33780000      7.51941000     59.21370000     -0.02105510      0.00074218     -0.00160435       1
O               6.67866000      1.81945000     -3.59458000      0.01357920     -0.03152530     -0.00184336       8
H               7.65720000      0.17599100     -3.52039000     -0.00975146      0.03474090     -0.00388739       1
H               7.57125000      3.01960000     -4.70019000     -0.00362302     -0.00481448      0.01513520       1
O              43.61690000      4.38418000     24.55710000      0.03260980     -0.02073820      0.06731150       8
H              42.47400000      4.70978000     26.22030000      0.04220530     -0.00229014     -0.05146150       1
H              45.50570000      3.39459000     25.26640000     -0.07606870      0.03729850     -0.00909740       1
O              -3.38917000     61.31140000     30.07160000      0.03842900      0.05187340      0.02428390       8
H              -4.04819000     62.55670000     28.86200000     -0.00564889     -0.01054300      0.00329429       1
H              -2.04108000     62.46830000     30.92920000     -0.02804210     -0.04505430     -0.02995150       1
O               8.32522000     39.39850000      8.83577000      0.07064350      0.01441360      0.03324890       8
H               7.61321000     37.72520000      8.89548000      0.00793314     -0.00486027      0.00613723       1
H              10.12630000     39.34900000      9.92777000     -0.08577790     -0.00967741     -0.04536360       1
O             -17.11920000     19.56640000     17.85940000     -0.03098260      0.02123590     -0.02606340       8
H             -18.65850000     20.48210000     17.07060000      0.03257880     -0.02911880      0.01870600       1
H             -16.64260000     20.61310000     19.25900000      0.00539488      0.00163796      0.00918546       1
O              32.33010000     33.28700000     51.16160000      0.03032750      0.09942550      0.02350600       8
H              32.33860000     31.68310000     50.64340000     -0.00688790     -0.09513780     -0.02382370       1
H              30.65790000     33.82090000     51.57110000     -0.02884800     -0.00772410     -0.00463012       1
O              14.40610000     34.45490000     20.58870000     -0.01705220     -0.09532220      0.02574890       8
H              14.96090000     35.42870000     19.26160000      0.00703710      0.03792750     -0.04692740       1
H              14.23110000     32.60070000     19.82750000      0.00505592      0.05144090      0.01639680       1
O               1.53646000    -23.56930000     21.72800000     -0.11443600      0.02702110      0.03220130       8
H               1.42773000    -25.07690000     20.90170000     -0.02872590     -0.05855220     -0.02388920       1
H               3.15501000    -23.36200000     21.54820000      0.13790700      0.03350190     -0.00292799       1
O               1.99381000     13.95280000      5.91061000     -0.01730360     -0.16572200      0.09419150       8
H               2.78003000     12.78730000      4.77986000     -0.00279618     -0.00916484     -0.00890332       1
H               2.06261000     15.42890000      5.35244000      0.01405550      0.18665800     -0.07841910       1
O               1.84707000      2.36605000     13.72330000      0.00452153     -0.02430040      0.05368400       8
H               2.20799000      0.57372500     14.48690000     -0.00945011      0.05989220     -0.00938350       1
H               1.87042000      3.73418000     15.11520000     -0.00018163     -0.04242560     -0.02844970       1
O             -34.82430000     54.00260000    -30.90360000     -0.02259940     -0.01646770      0.08400280       8
H             -33.99560000     54.37620000    -32.35790000      0.03742510      0.01151140     -0.05530320       1
H             -33.73360000     52.95880000    -29.61910000     -0.02150550      0.00805735     -0.02607500       1
O               5.28812000     50.34720000    -19.47300000      0.01825910     -0.01399450     -0.05864610       8
H               5.00905000     50.59510000    -17.77500000     -0.00813834      0.01303870      0.05781620       1
H               6.91695000     49.48020000    -19.54490000     -0.01142900     -0.00501418      0.01077660       1
O             -35.73130000     39.59890000      3.81044000     -0.05737470     -0.05641920     -0.02453060       8
H             -35.05390000     38.18080000      2.68631000     -0.00216342      0.03034010      0.02595500       1
H             -37.74010000     39.02670000      3.77964000      0.06904410      0.03187990     -0.00682208       1
O              19.66460000     35.33060000     14.59990000      0.04609340      0.02338620      0.03583400       8
H              21.31300000     36.22490000     15.38070000     -0.06844170     -0.02320260     -0.03751180       1
H              18.93200000     36.29390000     13.19530000      0.02337510     -0.00164105     -0.00580609       1
O             -16.75840000    -14.94170000      7.56889000      0.04115890      0.02587860      0.01918280       8
H             -16.74460000    -15.02110000      5.80170000      0.00709705     -0.00748154     -0.02615050       1
H             -18.29650000    -15.57950000      8.06569000     -0.05080500     -0.02118300      0.01478560       1
O             -46.31520000      5.64159000     18.68330000      0.06621820      0.06039130     -0.09148780       8
H             -46.72570000      4.35946000     19.76620000      0.00277616     -0.05053740      0.03035950       1
H             -44.53120000      5.52833000     17.69350000     -0.06869220     -0.00686931      0.05742470       1
O             -21.72690000    -17.20160000     33.70690000      0.01489970      0.02812290      0.01223500       8
H             -21.32360000    -18.90600000     33.65640000      0.03701970     -0.04289990      0.01360820       1
H             -23.25150000    -17.43520000     32.87800000     -0.04570570      0.02148760     -0.02451210       1
O              14.45250000     15.65180000     33.29450000     -0.03704180      0.02464140     -0.00288566       8
H              15.97850000     14.82210000     33.55120000      0.04148920     -0.02441000      0.00875463       1
H              13.97590000     15.33040000     31.56490000     -0.00195944     -0.00040588     -0.01622290       1
O             -21.48630000     -2.98056000     40.63180000     -0.05062570      0.00887924      0.04262350       8
H             -22.89080000     -3.19127000     42.03930000      0.04163390      0.00015560     -0.02861480       1
H             -22.44870000     -3.13990000     39.11450000      0.00034438     -0.00928859     -0.01919760       1
O              40.15830000      7.75445000     33.60920000      0.04236270     -0.05364570     -0.00971922       8
H              40.59400000      6.83408000     31.97550000     -0.01356660      0.02397690      0.02090530       1
H              41.17330000      6.71305000     35.00490000     -0.02743250      0.02990400     -0.02118090       1
O              -9.15807000    -35.68540000     -7.90646000      0.01792150     -0.02391220     -0.02827790       8
H              -7.62877000    -36.55220000     -8.50797000      0.01769870      0.00900416      0.02708490       1
H              -9.92122000    -36.21190000     -9.51991000     -0.03534910      0.01868990      0.00828315       1
O              54.21380000    -21.84440000    -14.26110000      0.00516958     -0.00444449      0.05177760       8
H              56.06000000    -21.65280000    -13.68150000     -0.04613620     -0.00974402     -0.01508910       1
H              52.95490000    -22.08600000    -12.63320000      0.04197810      0.01355470     -0.05071550       1
O              17.95640000     -2.23768000      7.60325000      0.06240800     -0.04099100     -0.01592840       8
H              16.89540000     -0.95030400      7.17995000     -0.04650490      0.04852660     -0.01209110       1
H              17.23200000     -3.12228000      8.95734000     -0.01891830     -0.01316870      0.03028700       1
O             -33.98210000     -3.24225000     45.85670000     -0.01633530     -0.03369290     -0.01817880       8
H             -34.40750000     -4.04015000     44.15390000      0.02360460      0.01108380      0.03675880       1
H             -33.47440000     -4.60368000     47.04620000     -0.00574486      0.02229540     -0.02166930       1
O               2.72679000    -11.11830000     -9.03321000      0.00024243     -0.00095948      0.00531029       8
H               3.52910000    -11.23860000     -7.39690000      0.01059100      0.02337860      0.00769783       1
H               2.97021000    -12.80480000     -9.54537000     -0.00576524     -0.01944770     -0.01944560       1
O              22.57490000     15.09910000     16.96250000      0.06892430      0.01395510     -0.03047940       8
H              22.03600000     16.80470000     16.70780000     -0.01587980      0.00507251      0.00197078       1
H              24.40750000     15.30690000     16.15160000     -0.05687720     -0.02579890      0.02946680       1
O              11.06470000     21.68780000    -10.71770000     -0.03301560     -0.00894257      0.00266703       8
H              10.23970000     21.64220000     -9.03480000      0.01561510     -0.00513250     -0.01861820       1
H               9.71035000     20.85910000    -11.80920000      0.01774430      0.01285110      0.01169040       1
O              23.44060000     55.91700000     29.72520000      0.01195380     -0.07297580     -0.00257023       8
H              22.03580000     56.93900000     29.25210000     -0.01120510     -0.00231357     -0.00196234       1
H              23.15730000     53.94500000     29.34730000      0.00413741      0.08411410      0.00264571       1
O              -8.34848000      6.37188000      4.01433000     -0.04993760     -0.01126070     -0.01494000       8
H              -9.04670000      7.92725000      3.24784000      0.02208800     -0.00950011      0.00952059       1
H              -9.86580000      5.16939000      3.57820000      0.03458710      0.01946700      0.00595145       1
O              16.23870000    -30.38280000     16.67370000     -0.01868430     -0.01018650     -0.00391620       8
H              15.65620000    -30.29680000     14.92560000      0.00444308      0.00676113     -0.00066257       1
H              15.79150000    -32.11720000     17.08230000      0.00576073     -0.00400653      0.00029652       1
O               1.22373000     16.22230000     47.41400000     -0.06156620     -0.01789610     -0.00013595       8
H               2.66822000     15.47420000     46.73430000      0.03196150     -0.01282130     -0.01418130       1
H              -0.16355700     14.91170000     47.01290000      0.03135110      0.03247380      0.01864660       1
O              40.42010000     44.30660000      2.66387000      0.01418540      0.00318428      0.01317910       8
H              41.26550000     44.57200000      4.32216000     -0.02463930     -0.00165307     -0.01943120       1
H              38.95570000     43.20700000      2.82840000      0.00945021      0.00029435      0.01211000       1
O              21.52030000     13.15210000    -27.08820000     -0.01641510     -0.05472620     -0.05505380       8
H              20.58900000     11.18790000    -27.54560000      0.04045280      0.05723390      0.02035810       1
H              22.01480000     13.77170000    -28.84510000     -0.01880770     -0.00795239      0.02801690       1
O             -17.34930000     44.54750000      1.69855000      0.02613860      0.00420498      0.01209820       8
H             -16.79120000     42.68580000      1.70925000     -0.00327754      0.05594480      0.01473620       1
H             -16.39240000     45.87230000      2.90647000     -0.02436220     -0.06762820     -0.02176710       1
O               9.25143000    -26.55230000     30.22400000      0.05986450      0.01704120      0.00632175       8
H               8.89959000    -27.09840000     31.94360000     -0.00876768     -0.00406907     -0.00666954       1
H              11.15780000    -26.04990000     30.34170000     -0.04657410     -0.00617295     -0.00415309       1
O               3.00679000     34.59990000      2.92871000     -0.01684940     -0.03660960      0.02855650       8
H               1.84503000     33.27380000      3.67473000      0.02072180      0.02240700     -0.00079055       1
H               2.32223000     34.65280000      1.27183000     -0.00170007      0.00802257     -0.02870890       1
O             -12.28360000    -11.73110000     12.34910000     -0.00944609     -0.07942870      0.00949462       8
H             -12.24580000    -13.76080000     11.77550000     -0.00677271      0.06699420      0.01792200       1
H             -11.61680000    -10.66350000     11.08510000      0.02060150      0.00308734     -0.01959860       1
O              -7.06819000      6.10143000     13.44670000     -0.00875285     -0.01803990     -0.00422569       8
H              -5.97607000      7.54915000     13.53680000      0.01242600      0.00333542      0.01034620       1
H              -6.05202000      4.55573000     13.41200000      0.00314803      0.01666450     -0.00154337       1
O              26.22970000    -14.08760000     -2.13975000     -0.02693710      0.03179250      0.00384790       8
H              24.70300000    -13.17480000     -2.69002000      0.00692686      0.00288266      0.02510970       1
H              26.20710000    -15.16400000     -3.52188000      0.01891310     -0.04215520     -0.02596680       1
O              19.77250000      8.28337000     45.38460000      0.04795020      0.04705650     -0.05143400       8
H              19.84200000      7.20787000     46.73280000     -0.00722876     -0.03928160      0.05357320       1
H              18.17290000      8.93221000     45.10330000     -0.04526640      0.00056964      0.00043039       1
O              16.03350000     26.65630000     46.04170000      0.00664292      0.01546900      0.00695017       8
H              17.44850000     27.68650000     47.05330000     -0.01563360     -0.04075860     -0.00842161       1
H              16.19030000     24.83020000     45.72420000      0.00932987      0.02043110      0.01133890       1
O             -15.47070000     10.89090000     21.81670000     -0.06544470     -0.01127770      0.04967680       8
H             -13.86090000     10.28870000     21.62350000      0.05868870     -0.00976347     -0.00877943       1
H             -16.02910000     10.07390000     23.51260000      0.01132720      0.02458070     -0.04130600       1
