192
TotEnergy=-1103.45225000 cutoff=-1.00000000 nneightol=1.20000000 pbc="T T T" Lattice="24.77267000       0.00000000       0.00000000      -0.00000100      24.77267000       0.00000000      -0.00000100      -0.00000100      24.77267000" Properties=species:S:1:pos:R:3:force:R:3:Z:I:1
O              23.79430000     -3.70265000    -34.06220000     -0.00771151     -0.03780590     -0.00174378       8
H              21.98480000     -3.39738000    -34.45490000      0.01934620     -0.00180850     -0.00187357       1
H              23.97410000     -5.61488000    -34.23910000      0.00018953      0.03889100      0.00531288       1
O              48.76570000     46.90920000     -4.07444000      0.02732440      0.01090030     -0.03564280       8
H              50.34250000     47.83990000     -4.53174000     -0.01641230     -0.00899761      0.01901500       1
H              48.65570000     46.05220000     -5.72398000     -0.01174170      0.00203817      0.00790064       1
O              13.07360000      1.11051000     16.34670000      0.08544310      0.13489500     -0.01136770       8
H              13.90240000      2.08422000     17.81300000     -0.02375140     -0.03873250     -0.02149770       1
H              12.11190000     -0.24934900     16.46550000     -0.05230240     -0.08930220      0.03063840       1
O              -6.51052000     -8.51133000     -2.38593000     -0.15058400      0.07511780      0.07881790       8
H              -5.03215000     -8.90945000     -2.88103000      0.15061800     -0.04488510     -0.05132430       1
H              -6.23354000     -7.23797000     -0.92549800     -0.00311597     -0.02526950     -0.02531640       1
O               6.76750000     32.53440000     19.04980000      0.03150910      0.00193226     -0.01884580       8
H               7.17875000     33.71280000     20.36470000      0.00566392     -0.00031600      0.00603739       1
H               8.37397000     32.27700000     18.02540000     -0.03159970     -0.00229580      0.01388270       1
O              -5.80994000     11.12080000      7.13058000     -0.03852470     -0.02995050     -0.01773190       8
H              -7.07396000     10.63890000      8.44983000      0.02684810      0.00331336     -0.01487780       1
H              -6.13673000      9.99052000      5.60746000      0.01597380      0.03010240      0.04044270       1
O              44.98840000     29.65630000     12.24080000     -0.02189000     -0.01498440      0.00150203       8
H              46.48080000     28.60720000     12.33770000     -0.00341191      0.00547568     -0.00191321       1
H              43.52320000     28.48600000     12.01670000      0.02147210      0.00702054      0.00344573       1
O               1.24203000    -31.91360000      6.64160000      0.00658024     -0.05484390      0.01669030       8
H               1.80802000    -32.25110000      8.40789000     -0.00223758      0.02622290     -0.02170190       1
H               0.64219100    -30.28400000      6.35806000     -0.01915800      0.03721120      0.01054360       1
O              32.53020000    -35.61900000     18.77380000     -0.03210910      0.00656163     -0.04429230       8
H              30.88120000    -35.90450000     17.74800000      0.04179880      0.00374372      0.02096910       1
H              32.43120000    -36.26340000     20.44060000     -0.00654440     -0.00839911      0.01597350       1
O               8.27771000    -27.50620000    -25.82310000      0.07603750      0.00903621     -0.00711550       8
H              10.22360000    -27.69600000    -25.52200000     -0.04277780      0.01436710     -0.03120250       1
H               7.93547000    -28.32040000    -24.30300000     -0.02924600     -0.02656380      0.03822020       1
O             -11.15320000      2.15675000      6.93625000      0.05650860     -0.02224500     -0.01098400       8
H             -11.07230000      3.23751000      5.47146000     -0.01960440      0.00658200      0.01049390       1
H             -12.54990000      2.20800000      7.97995000     -0.03756120      0.01357870      0.00689714       1
O             -11.92110000     30.94750000     52.75750000      0.16216100      0.05527150      0.03682470       8
H             -13.32790000     30.36750000     52.20810000     -0.13879600     -0.05855340     -0.04610460       1
H             -10.62910000     30.40340000     51.54830000     -0.01247840      0.00315139      0.01031300       1
O              12.31320000    -34.20490000    -14.78520000     -0.05685510     -0.06000510     -0.01620260       8
H              13.71900000    -33.72980000    -15.76370000      0.02057540      0.00239032     -0.01927740       1
H              11.37710000    -35.79970000    -15.69750000      0.03140390      0.06167400      0.03104370       1
O              29.04630000     14.08030000     39.35790000     -0.05008660     -0.00244137      0.02847280       8
H              27.14420000     14.30950000     39.98880000      0.05663500     -0.00674010     -0.02951050       1
H              29.03910000     12.51090000     38.35520000     -0.00746966      0.01337750      0.00301896       1
O               0.05373300     -0.14058600      1.40169000      0.03945290      0.00438832     -0.00003553       8
H              -0.12480600     -1.99066000      1.01550000      0.00332359      0.01316570     -0.00620463       1
H               1.96661000      0.19898000      1.27252000     -0.04463700     -0.00337729      0.00033724       1
O             -31.84310000     21.45330000     31.79820000     -0.05365780      0.03446150      0.02657640       8
H             -33.40900000     22.45520000     32.63120000      0.05960200     -0.04654310     -0.03596660       1
H             -32.35320000     19.71650000     31.46260000     -0.00304816      0.01147040      0.01349580       1
O             -34.16110000     12.40680000     24.69920000     -0.01662190     -0.01991340     -0.03949390       8
H             -35.12010000     10.92600000     23.78470000      0.02407740      0.04292070      0.01827990       1
H             -33.47850000     13.48250000     23.28580000     -0.00273867     -0.01663870      0.02255310       1
O             -21.51840000     66.18930000    -22.42030000      0.01234260      0.19994500     -0.05947620       8
H             -22.37840000     66.85270000    -21.00510000     -0.00971838      0.00303380      0.02701120       1
H             -21.51510000     64.63270000    -22.21910000      0.00030863     -0.21351700      0.02383870       1
O              68.38000000     21.20100000     38.91370000      0.03227110     -0.05434160      0.01947280       8
H              67.64700000     22.74630000     38.85240000     -0.03044880      0.06603130     -0.02378000       1
H              67.90450000     20.67410000     40.60270000     -0.00794964     -0.01354540      0.00469412       1
O              57.83620000    -20.46140000      3.87836000     -0.03006750     -0.02094400     -0.05168970       8
H              57.59770000    -21.43470000      5.37630000     -0.00302922     -0.00703698      0.00877355       1
H              56.82410000    -21.38580000      2.46023000      0.02180040      0.02858500      0.04218690       1
O              28.19500000     18.61140000    -13.73840000      0.06868350      0.05510460     -0.07861100       8
H              30.14550000     18.62090000    -14.26830000     -0.05916930      0.00218528      0.01122100       1
H              28.14100000     17.48860000    -12.48520000     -0.00300999     -0.06323170      0.07381160       1
O             -15.28600000      5.65281000     65.00720000      0.08198370      0.02284570     -0.05852090       8
H             -14.21350000      6.97208000     63.50280000     -0.04345560     -0.04215750      0.04969250       1
H             -13.96240000      4.26415000     65.14070000     -0.03109150      0.02189940      0.00234961       1
O               5.14486000      1.59624000      0.06249800      0.01214390     -0.03170680      0.11903000       8
H               4.92143000      2.19502000     -1.48843000     -0.00828282      0.03094480     -0.09974740       1
H               6.46604000      0.34653500      0.17256500     -0.00183114     -0.00332806     -0.01934140       1
O              46.55960000      4.33739000     24.94850000      0.01314470     -0.01672020      0.01804100       8
H              46.22570000      6.01468000     25.92640000      0.02355130     -0.06378690     -0.01667220       1
H              47.82400000      2.76771000     25.33670000     -0.03654650      0.05872400      0.01297770       1
O              -0.53924800     61.56510000     31.50210000     -0.02765100      0.08821690     -0.00359690       8
H              -2.41844000     61.66950000     31.58180000      0.02084390     -0.02042350      0.00502826       1
H              -0.32197400     63.58340000     31.29250000      0.00830069     -0.06871630      0.00483116       1
O              11.60220000     33.95280000     12.16500000      0.05063200     -0.00412098     -0.00693871       8
H              10.58680000     34.86960000     10.96620000      0.00110468     -0.00283068     -0.00666842       1
H              13.49870000     34.03440000     11.60590000     -0.04818460     -0.00260453      0.01918670       1
O             -17.56670000     19.49020000     18.97310000     -0.00895988     -0.05478840     -0.08062730       8
H             -17.48270000     17.62380000     18.79020000     -0.00036716      0.01705560      0.00791413       1
H             -17.09150000     19.93720000     20.54850000      0.01874740      0.02205820      0.07766050       1
O              32.71940000     35.04980000     53.02140000      0.02699670      0.06700630     -0.02261420       8
H              33.18470000     33.53650000     53.63840000      0.02083040     -0.07651290      0.02289510       1
H              30.97070000     35.14230000     53.13540000     -0.05206740      0.00084898     -0.00655522       1
O              13.45290000     33.47160000     21.38710000      0.01893040     -0.03670830     -0.01319640       8
H              13.07810000     34.31790000     19.75370000      0.00847495     -0.01093260      0.00927361       1
H              14.28950000     31.76220000     20.98630000     -0.02181550      0.03851320      0.00288648       1
O               4.14990000    -26.48310000     17.80530000     -0.03714880     -0.06598660     -0.04727810       8
H               2.80415000    -27.03090000     16.46250000      0.03816760      0.02493620      0.03915480       1
H               4.97979000    -28.29010000     18.02110000     -0.01007320      0.05518160      0.00355071       1
O              -0.41357000     19.84860000      0.13017600     -0.00322497      0.00165203      0.00271388       8
H               1.17256000     18.95450000      0.30235900     -0.00638643     -0.00329307     -0.00343058       1
H              -0.68243000     20.41530000     -1.64161000      0.01080450     -0.00283280      0.00458447       1
O               0.94771000      2.62107000     13.70050000      0.02611100      0.07192920     -0.03547860       8
H               1.62794000      1.69627000     12.32210000     -0.00058918     -0.02704280     -0.00621156       1
H               0.14085100      1.63320000     14.81910000     -0.02941900     -0.05246200      0.04380450       1
O             -33.78740000     53.40850000    -29.58690000      0.02988620      0.02081490      0.02800400       8
H             -32.14260000     54.31730000    -30.05940000     -0.02784240     -0.01606580     -0.00132887       1
H             -33.58310000     53.00860000    -27.75380000     -0.00175130     -0.00469295     -0.02422690       1
O               7.32460000     51.33670000    -15.73620000     -0.00521931      0.00602985      0.00978756       8
H               7.12695000     52.94450000    -14.75180000     -0.01051470     -0.03417760     -0.01136380       1
H               5.79816000     50.24840000    -15.56020000      0.01660970      0.02393270      0.00424400       1
O             -36.15980000     42.05200000      2.22653000     -0.03710970     -0.05114680     -0.01237030       8
H             -35.74290000     40.23730000      1.31674000     -0.02679160      0.05785050      0.02669390       1
H             -38.12870000     42.35640000      2.49423000      0.05813020     -0.02385880     -0.00918206       1
O              17.67160000     37.14350000     18.45330000      0.11564000     -0.00536693      0.03662040       8
H              16.07930000     37.18750000     17.96960000     -0.10127100     -0.00152765     -0.03151400       1
H              18.10020000     35.50220000     19.08560000     -0.01371930     -0.00608334     -0.00606684       1
O             -16.23820000    -13.02160000      8.39805000      0.07981040      0.01607950     -0.05490100       8
H             -16.72800000    -13.45820000      6.66720000     -0.00087474      0.00278139      0.01173250       1
H             -17.41620000    -13.25980000      9.58381000     -0.07574150     -0.01157850      0.04713630       1
O             -45.59660000      3.83684000     20.21360000      0.02350720     -0.03692920     -0.09418300       8
H             -45.61290000      2.76607000     18.42900000     -0.00576553      0.03172140      0.07910960       1
H             -44.09780000      4.92440000     19.69680000     -0.02776310      0.00024023      0.01914150       1
O             -21.27000000    -14.27530000     35.63220000     -0.02447050     -0.05645580     -0.01347780       8
H             -20.97630000    -16.28380000     36.00850000     -0.01768780      0.07273980     -0.01607410       1
H             -22.88200000    -13.88730000     34.56240000      0.04778750     -0.02184330      0.03055520       1
O              16.73230000     16.09070000     31.27640000     -0.05279040     -0.01669220     -0.07408290       8
H              16.91870000     14.26110000     31.27730000      0.01811970      0.00441702      0.01206570       1
H              15.64080000     16.07940000     29.52970000      0.03111960      0.01867280      0.06028240       1
O             -22.29770000     -1.10845000     35.10090000      0.01214270      0.07017890     -0.00644736       8
H             -22.01060000     -2.70045000     35.71590000      0.00457825     -0.05756890      0.01841330       1
H             -23.51940000     -1.17173000     33.81280000     -0.01668340     -0.00861687     -0.01893280       1
O              41.71620000      9.63198000     37.09760000     -0.04463870     -0.04298660     -0.09031310       8
H              42.78250000      8.21434000     37.10260000      0.02586100     -0.00660278      0.02204230       1
H              41.64760000     10.94390000     38.16470000      0.01971440      0.05270370      0.06398210       1
O              -8.37008000    -30.70250000     -6.81373000     -0.02781740     -0.00092462     -0.07929640       8
H              -7.57141000    -31.26490000     -5.39356000      0.02710460     -0.03064830      0.05354550       1
H              -8.52029000    -32.19060000     -8.06287000      0.00540270      0.02224560      0.02655960       1
O              54.75900000    -19.31150000    -12.19680000     -0.01223770      0.04901850     -0.13159100       8
H              55.76200000    -19.32590000    -10.89800000      0.09932220      0.00817813      0.10143000       1
H              53.44470000    -20.16200000    -11.59640000     -0.08832060     -0.04956890      0.02724170       1
O              11.37700000     -2.05366000     10.93820000     -0.00989775     -0.01334530      0.00668672       8
H              11.14780000     -3.23947000     12.39890000      0.00047786      0.03061120     -0.01702030       1
H               9.99978000     -0.81695200     10.79900000      0.00954769     -0.01314200      0.01115860       1
O             -35.71980000     -3.73453000     48.43590000      0.00501216     -0.00788315     -0.00655962       8
H             -34.66770000     -4.35303000     47.00320000     -0.02248260      0.00646996      0.03175360       1
H             -35.87470000     -5.05320000     49.79120000      0.01581560      0.00794538     -0.02628740       1
O              12.43300000    -13.47320000     -7.67831000      0.00722680      0.12891600      0.20675800       8
H              10.72290000    -12.84220000     -6.86613000      0.04859360     -0.00625770     -0.02659460       1
H              11.94440000    -14.27640000     -8.92838000     -0.06236550     -0.11272900     -0.18122200       1
O              19.94160000     16.96280000     11.43870000      0.00331290      0.00320399     -0.00690116       8
H              19.51550000     18.57760000     12.35620000      0.00778157     -0.01071010     -0.03578210       1
H              20.17040000     17.03750000      9.56622000     -0.00941749      0.01381930      0.04092660       1
O              11.85510000     20.87460000     -8.36928000     -0.06151000     -0.03942890      0.03397180       8
H              10.23050000     20.02920000     -7.36673000      0.06070470      0.03606370     -0.03859050       1
H              13.35670000     20.01250000     -7.72278000     -0.00943444      0.00741930      0.00016880       1
O              23.43470000     47.15600000     30.70800000     -0.03814360      0.01597570      0.00345457       8
H              21.63400000     47.38320000     31.32820000      0.03852760     -0.00909141     -0.01543420       1
H              23.55140000     48.09240000     29.08040000      0.00331995     -0.00567258      0.02171710       1
O              -6.24548000      8.32445000      2.25987000      0.01227300      0.00713586     -0.01447330       8
H              -6.97643000      9.65613000      1.26049000      0.00547936      0.01045270     -0.01688020       1
H              -7.47383000      8.35935000      3.51787000     -0.02726930     -0.02010220      0.02444770       1
O              16.43130000    -23.86720000     12.04160000      0.01242040      0.00520243      0.06421750       8
H              15.71030000    -23.84650000     10.44480000     -0.02595600      0.00094035     -0.02726420       1
H              15.14900000    -23.89300000     13.46600000      0.01016480      0.00306231     -0.03039770       1
O              -0.61868600     15.63080000     40.17060000     -0.05543820     -0.02398030      0.03981020       8
H              -1.29761000     14.72020000     41.93290000      0.01869810      0.03608960     -0.05918020       1
H              -2.11831000     15.80280000     38.97790000      0.03064500     -0.01353860      0.02329230       1
O              44.01980000     44.25000000      1.36604000     -0.08749440     -0.01837220      0.03992630       8
H              45.64720000     44.90190000      1.50388000      0.03219670      0.00832929      0.01701970       1
H              42.88200000     44.25450000      2.99760000      0.05477900      0.00891948     -0.05772710       1
O              22.44090000     13.75960000    -29.28040000     -0.10576500      0.07262860     -0.11727900       8
H              23.41340000     13.01920000    -28.22520000      0.09585140     -0.07931490      0.09847150       1
H              21.02060000     12.70590000    -29.84620000      0.01680600      0.01220230      0.00993347       1
O             -17.18370000     43.59030000      3.38615000      0.14031600      0.08481220      0.06938250       8
H             -18.62160000     42.81250000      2.97990000     -0.08827950     -0.04662520     -0.00247226       1
H             -16.75060000     44.22010000      5.30600000     -0.04142640     -0.03658030     -0.06758090       1
O               8.19115000    -30.35800000     33.54200000      0.03608200     -0.03093090     -0.02117350       8
H               9.50552000    -31.74020000     33.38630000     -0.03019090      0.01199340      0.01244770       1
H               9.38935000    -28.98480000     33.65970000     -0.00192639      0.01535340      0.01417130       1
O               2.76597000     35.79960000      2.92908000     -0.05353830     -0.00955244     -0.03050840       8
H               1.18932000     35.43340000      4.00058000      0.03923770      0.01548370     -0.02057630       1
H               2.12143000     35.80020000      1.08299000      0.02256340     -0.00606041      0.04668160       1
O              -8.60078000     -9.70365000     14.29540000     -0.00222024      0.00282995     -0.00033079       8
H             -10.21820000     -9.83766000     13.50800000     -0.01340840      0.00049156     -0.00133288       1
H              -7.55683000     -9.03685000     12.94410000      0.00896965     -0.00249665     -0.00082347       1
O              -5.01790000      6.40709000     17.79440000     -0.02013660      0.02482690      0.04748150       8
H              -3.55773000      5.88010000     18.74230000      0.01518570      0.00524168      0.00794195       1
H              -4.93393000      5.54448000     16.30510000      0.00156615     -0.02441140     -0.05845760       1
O              26.77970000    -14.46010000     -2.71563000     -0.05750320     -0.03299980      0.00330984       8
H              25.50550000    -15.90910000     -3.21093000      0.03790030      0.03637300      0.01352240       1
H              28.13280000    -14.56200000     -3.86321000      0.01141580     -0.00500802     -0.01317000       1
O              23.63850000      6.01853000     45.60140000      0.04245890     -0.03122170      0.00005413       8
H              23.09120000      4.86474000     46.98450000     -0.01372640      0.02330450      0.00331909       1
H              25.33060000      5.19447000     45.33400000     -0.01569740      0.01659500     -0.00949114       1
O              16.22880000     26.97490000     50.19320000      0.05650230      0.00508835      0.02613250       8
H              18.02900000     26.91850000     51.01450000     -0.05749830      0.00324652     -0.03228380       1
H              15.51940000     25.32720000     50.44010000      0.00027997     -0.00555077     -0.00141173       1
O             -15.54820000     10.94410000     22.98360000     -0.04520740     -0.00786409      0.07537350       8
H             -14.44070000      9.60289000     22.77450000      0.04080900     -0.02750930     -0.02774090       1
H             -15.97710000     10.30980000     24.83160000     -0.00361986      0.03957540     -0.04415430       1
