192
TotEnergy=-1103.02908000 cutoff=-1.00000000 nneightol=1.20000000 pbc="T T T" Lattice="23.30419000       0.00000000       0.00000000      -0.00000100      23.30419000       0.00000000      -0.00000100      -0.00000100      23.30419000" Properties=species:S:1:pos:R:3:force:R:3:Z:I:1
O               6.44487000      1.46548000      4.59864000     -0.13556900     -0.08445490     -0.02505360       8
H               5.94412000      0.26839800      3.00667000      0.03431130      0.03017780      0.04066730       1
H               7.88543000      2.28369000      4.50064000      0.10863100      0.04445050     -0.02188140       1
O              18.32710000      3.60185000     19.95790000     -0.04489870      0.00332822     -0.02508510       8
H              17.32520000      4.33915000     21.30890000      0.00164256     -0.01133370      0.00445068       1
H              20.06240000      3.64282000     20.24610000      0.04087560      0.00743404      0.01496200       1
O              18.81930000     21.53200000      0.32782700      0.01208060     -0.04395240      0.02624650       8
H              18.64330000     19.61800000      0.69915000      0.02237720      0.04477280      0.00892695       1
H              17.39520000     21.74610000     22.65160000     -0.03233200      0.01904590     -0.03046060       1
O              19.96720000     17.11350000      1.87090000      0.04897350      0.01985200      0.07424760       8
H              20.43970000     16.18440000      3.54029000     -0.00799040      0.02631350     -0.05001820       1
H              18.87240000     15.98090000      1.20464000     -0.04063410     -0.05707910     -0.02706030       1
O               3.26983000     -0.29042600      8.46831000      0.05279370     -0.03056000     -0.13418500       8
H               3.17035000      0.62657100      9.81750000     -0.02954100      0.06461180      0.13083400       1
H               4.54726000      0.87746500      7.60342000     -0.02423210     -0.04012930     -0.00644637       1
O              19.43710000      2.28427000      7.59228000     -0.00216503     -0.00724836      0.00870191       8
H              19.26340000      3.41571000      8.97464000     -0.00738962      0.00662939      0.01775010       1
H              20.29790000      0.74499200      8.10775000      0.00250907     -0.00912567     -0.00268511       1
O              12.76290000     21.40710000     18.75700000     -0.06208670      0.02689370      0.05739090       8
H              12.76610000     21.16700000     20.71790000      0.00657032     -0.00238501     -0.05481110       1
H              10.95090000     22.17500000     18.64010000      0.05296690     -0.01427080     -0.00189476       1
O              21.96030000     21.27260000      6.82565000     -0.11134200     -0.03302510     -0.01822400       8
H              21.60030000     21.12510000      5.00058000     -0.00684330     -0.00201027      0.02174120       1
H               0.26694700     21.64880000      6.69975000      0.11426000      0.03865440      0.00302488       1
O              19.92320000      9.07636000      5.11122000      0.02149330     -0.07328940      0.04840330       8
H              18.75510000      7.91011000      6.36659000      0.02920680      0.04229890     -0.04911170       1
H              21.48600000      7.83917000      4.84797000     -0.04970460      0.02941400      0.00801876       1
O               8.95406000     10.75420000     11.95170000      0.02746280     -0.08383930      0.01039180       8
H               7.84437000     12.01270000     11.86030000     -0.05217510      0.08454340     -0.01306450       1
H               8.10383000      9.70876000     13.26120000      0.02925360      0.01119300     -0.00257563       1
O               3.66155000     18.86550000     12.97730000     -0.03030700     -0.03712700     -0.08611310       8
H               3.03599000     17.75720000     11.30520000      0.03407170      0.04637470      0.07401650       1
H               4.29403000     17.59320000     14.13440000      0.00525846     -0.01207060     -0.00046575       1
O              20.55950000      5.30463000     12.27160000      0.06584890     -0.07993510     -0.05769920       8
H              19.50810000      5.46080000     13.59680000     -0.05530310      0.02608380      0.06832130       1
H              21.03260000      6.72789000     11.39770000      0.00488234      0.05422010     -0.01106340       1
O               0.10054200     16.42900000      9.12813000      0.00904223     -0.00113263      0.00129950       8
H              22.32610000     15.41150000     10.20720000      0.00424038      0.02184550      0.00135585       1
H              23.13640000     18.26030000      9.18150000     -0.02018070     -0.01811460      0.00212755       1
O               1.31166000     13.92930000     -0.19339900      0.02343010     -0.00272621     -0.06416770       8
H              -0.06024000     14.73230000     22.12860000      0.00052600     -0.00428602      0.02104960       1
H               1.01457000     13.83190000      1.52034000     -0.01859810      0.00501135      0.04448180       1
O               4.75468000     18.19800000      6.51079000     -0.01581650      0.06526840     -0.00097252       8
H               3.37229000     17.10110000      6.64690000     -0.01604540     -0.02285770     -0.00274324       1
H               3.84222000     19.94690000      6.65008000      0.04117270     -0.04763730      0.00203489       1
O               9.12960000     14.44020000     18.94980000      0.01757080      0.01850560     -0.00865284       8
H               9.01140000     14.09840000     20.75360000      0.00361792      0.01977680     -0.00868374       1
H              10.15270000     16.01380000     18.47420000     -0.02016980     -0.03866960      0.01461780       1
O               7.77298000     15.72430000     10.04860000      0.05016010      0.04347000     -0.00912284       8
H               6.92238000     16.70540000      8.69353000      0.00529346     -0.00549424      0.01901180       1
H               9.43758000     16.71410000     10.37330000     -0.05061870     -0.03205920     -0.01353730       1
O               8.75388000     11.22170000      5.68887000     -0.15969200     -0.30925900     -0.21192400       8
H               9.62870000     12.23320000      6.20766000      0.26687900      0.31133300      0.15690800       1
H               7.24676000     11.33650000      6.31748000     -0.11726700      0.01061880      0.05064800       1
O              12.62710000     14.46020000      6.34491000     -0.14640600      0.06115920     -0.16169300       8
H              12.29640000     16.24540000      6.37047000      0.00829009     -0.00360921      0.00063326       1
H              13.61110000     13.95670000      7.44641000      0.14264300     -0.05924720      0.15951000       1
O              19.15830000     21.74640000     16.86980000      0.00341645      0.04659340      0.05970620       8
H              19.36610000      0.15795900     17.93070000     -0.01443370     -0.06284010     -0.03707630       1
H              18.30050000     20.59460000     18.12940000      0.01381830      0.01574210     -0.02272980       1
O              13.43050000      9.65629000     17.62940000     -0.15683600      0.06023190      0.02613660       8
H              11.62300000      8.96551000     16.88870000      0.06406320      0.03045630      0.02281980       1
H              14.51990000      8.57805000     17.02430000      0.08439300     -0.08553100     -0.05084610       1
O              11.10570000      3.66931000      3.84792000      0.06093500     -0.06363030      0.03092780       8
H              11.32080000      5.00936000      4.97375000     -0.01449590      0.04601760      0.01847270       1
H              12.45520000      2.58282000      4.91135000     -0.04606140      0.01963030     -0.04988150       1
O               3.67336000     18.20600000     21.08810000     -0.01470310     -0.03345470      0.02241700       8
H               2.57334000     19.20640000     20.04520000     -0.00378988     -0.01341740     -0.00437442       1
H               2.81313000     16.55710000     21.79550000      0.02053390      0.04780110     -0.01658400       1
O               1.08651000     12.99230000     14.08820000     -0.05387400     -0.02027550      0.00754644       8
H               0.53855100     11.98410000     12.59250000      0.00615679      0.01067290      0.01370910       1
H               2.67443000     13.63150000     13.77180000      0.04741570      0.01880200     -0.00333013       1
O               0.92694200     10.03020000     18.86870000      0.02650980      0.03527290      0.04655960       8
H               0.85730500     10.95740000     17.34310000      0.00366276      0.00507816     -0.02956660       1
H               1.87078000     11.30800000     19.99380000     -0.02366710     -0.03905020     -0.01985170       1
O               2.15283000      3.12455000     12.19210000     -0.07886560      0.02419740      0.02192420       8
H              -0.12381200      3.99562000     12.51790000      0.06459510     -0.02100850     -0.01380630       1
H               3.16098000      4.60605000     11.95880000     -0.00135995      0.00871869     -0.00192516       1
O              15.19880000     14.40680000     16.60260000      0.00152371     -0.01165010      0.01021490       8
H              14.54690000     12.63000000     17.08160000      0.00890492      0.04984820      0.00388232       1
H              15.54300000     15.89090000     17.91370000     -0.01328590     -0.04965500     -0.01610980       1
O               3.91872000      5.75562000      4.87765000      0.03159440      0.04062470      0.00312685       8
H               4.76368000      4.22311000      4.47432000      0.01381530     -0.02689770      0.00100673       1
H               2.41058000      5.27493000      5.68972000     -0.02630930     -0.01083620     -0.00135114       1
O              22.73730000      4.62123000      5.27578000     -0.04058730     -0.01543210     -0.00221024       8
H              21.60680000      3.65993000      6.48507000      0.01911970      0.01606510     -0.00929919       1
H              21.90150000      3.89607000      3.79932000      0.02166930      0.00669973     -0.00362515       1
O               6.20582000     14.95740000     14.82460000      0.06782630      0.04992990     -0.00901070       8
H               7.60361000     16.14890000     13.68530000     -0.06254170     -0.05939450      0.05319000       1
H               7.01778000     14.81240000     16.60430000     -0.01254800      0.00108307     -0.03571340       1
O              16.81000000     17.73350000     19.65800000     -0.02844580      0.02834400      0.03874230       8
H              15.86010000     18.28750000     21.30260000      0.02220650     -0.01997950     -0.04035380       1
H              18.23600000     16.67750000     20.03000000      0.01198960     -0.00304357      0.00798801       1
O              11.64920000     17.66390000     15.64240000     -0.01975290     -0.03839260     -0.03494540       8
H              12.26570000     19.00240000     16.59840000      0.01502590      0.02828370      0.02804130       1
H              13.08720000     16.57160000     15.21070000     -0.01114200      0.00298724      0.01068150       1
O              19.47380000     15.62010000     14.28970000      0.23449700      0.04938580     -0.17757900       8
H              21.07280000     14.47790000     14.38400000     -0.04750760      0.03620990      0.00307497       1
H              18.41500000     15.14590000     15.30560000     -0.17557800     -0.08461840      0.16223800       1
O               8.92716000      3.89144000     11.65910000     -0.02105670      0.07960850      0.02765280       8
H               8.10179000      2.59066000     10.95970000     -0.04843460     -0.06267820     -0.03278910       1
H              10.55140000      3.33253000     11.62030000      0.06944950     -0.01257810      0.00257168       1
O              17.48640000     17.40710000      9.07342000      0.04729900     -0.08365560     -0.00567075       8
H              18.34740000     16.70400000     10.58670000     -0.02663450      0.02558230     -0.01283130       1
H              16.72890000     18.91680000      9.28928000     -0.02447030      0.05661250      0.02535360       1
O              16.83330000      6.46990000     15.77600000      0.06323270      0.02769910      0.07020720       8
H              15.79060000      5.52839000     14.78080000     -0.04403070     -0.04002220     -0.03757020       1
H              17.25390000      5.54955000     17.41770000     -0.00534771      0.00053536     -0.02913890       1
O               0.01712200      3.93377000     20.89360000      0.01726430     -0.16383900     -0.07949960       8
H               0.27040400      5.40602000     21.44380000      0.02193620      0.17405200      0.06983640       1
H               1.67671000      3.66057000     19.99900000     -0.03669090     -0.00868969      0.00691251       1
O               8.04065000      1.60363000     19.24560000     -0.02634170     -0.10847500     -0.04776400       8
H               8.20097000      3.15001000     19.87500000      0.00524359      0.09357360      0.03360230       1
H               6.45161000      1.50205000     18.18130000      0.02234950      0.01516750      0.02094400       1
O               3.38398000      7.51730000      0.13925400     -0.00643587     -0.10205000     -0.08211300       8
H               3.60251000      6.53645000      1.58317000      0.00212823     -0.03073240      0.03657390       1
H               3.40318000      8.99986000      0.80318500     -0.00433518      0.14208800      0.05072880       1
O              14.21430000     11.89500000     11.02360000      0.14355000      0.01614870     -0.02377630       8
H              14.61910000     12.49610000     12.63250000      0.00128931      0.01162480      0.02465530       1
H              12.62520000     11.55060000     10.91880000     -0.14041900     -0.03140020      0.00003731       1
O               1.40899000     20.34920000     16.68150000     -0.09204330      0.11779500      0.19673100       8
H              -0.55189200     20.94820000     16.58660000      0.05528010     -0.00718110      0.02293160       1
H               1.28500000     19.69290000     15.26620000      0.01529200     -0.10058000     -0.20369000       1
O              19.27440000     10.57100000     19.75360000     -0.16389300     -0.00037480     -0.04026830       8
H              20.90350000     10.10050000     19.73070000      0.08074780     -0.04184790     -0.01447540       1
H              17.89530000      9.58808000     18.56100000      0.07868190      0.03789240      0.04714000       1
O               7.53053000      6.93135000     20.83650000      0.00170802      0.01681830      0.01521170       8
H               6.05425000      7.37848000     21.93460000      0.00227456     -0.01361780     -0.01856590       1
H               8.81585000      7.90397000     21.69230000      0.00457699     -0.00639398     -0.00647272       1
O              13.44310000     19.01080000      0.13391800      0.00369036      0.08213310      0.06626040       8
H              12.80290000     20.05510000      1.88330000      0.02169260     -0.05974800     -0.07895160       1
H              12.41920000     17.56670000     -0.05020100     -0.02818900     -0.02363870      0.01334850       1
O              21.76550000     15.76390000     19.66930000      0.01858140     -0.02626450     -0.05847130       8
H              22.08050000     13.90910000     18.79040000     -0.01497750      0.08709360      0.02429900       1
H              22.41200000     17.28270000     18.58790000     -0.01330180     -0.05804180      0.02362650       1
O              18.42370000     12.18050000      1.12086000     -0.00854489     -0.03574660     -0.02116820       8
H              18.25310000     11.36180000     -0.67734900      0.01999960      0.01725840      0.05170410       1
H              19.07130000     10.93340000      2.41109000     -0.01704770      0.02039010     -0.03066860       1
O              -0.26911500     13.99040000      4.78004000     -0.04766110     -0.04823200      0.09701990       8
H              -0.35443200     15.08620000      6.50530000      0.01110800     -0.02520730     -0.05074400       1
H              22.11630000     12.24870000      5.57410000      0.03454880      0.07172190     -0.04808070       1
O               3.46680000      1.93015000     17.12090000     -0.01196650      0.02576870     -0.05634280       8
H               2.84501000      2.38819000     15.26160000      0.02013230      0.00349775      0.04222070       1
H               3.15541000      0.18711500     16.89100000     -0.00883475     -0.03237030      0.01133460       1
O              10.27110000     14.87230000      0.91584200     -0.00099202     -0.01479760      0.02483800       8
H               9.50040000     14.98130000      2.62448000      0.01632850     -0.00176709     -0.03218070       1
H              11.32850000     13.31210000      0.97270800     -0.01784300      0.01759470      0.00315394       1
O               0.71234200     22.82650000      2.24331000     -0.02261770     -0.01616770     -0.01692950       8
H               2.32375000     -0.21280400      1.53413000      0.02440540      0.00628303     -0.00048915       1
H              -0.05988300     21.90750000      0.83421700     -0.00508708      0.00956307      0.01656620       1
O              -0.30346800     10.24580000     10.51320000     -0.11730800      0.03260700     -0.08313300       8
H              22.08520000     10.55390000      8.52318000      0.04419310     -0.01921930      0.09027440       1
H               1.19981000      9.41684000     10.26550000      0.05956450     -0.03070360     -0.02228630       1
O              13.24730000     -0.53580000      7.96473000      0.05280980     -0.02530920      0.04215890       8
H              14.18790000     22.21130000      9.65876000     -0.03585690      0.01880570     -0.05671070       1
H              14.60190000     -0.47484600      6.59986000     -0.02066810      0.00549555      0.02162370       1
O               4.12784000      8.36686000      9.52474000      0.08959330     -0.04106670      0.02714060       8
H               4.75031000      7.08886000      8.13488000     -0.01919980      0.03911030      0.03206110       1
H               5.70177000      8.43550000     10.92420000     -0.06358580      0.00023710     -0.06549620       1
O               8.57681000      7.59006000     15.48970000     -0.01021920      0.15709800      0.09085110       8
H               8.82473000      6.33852000     14.52260000      0.01845730     -0.15033000     -0.08606740       1
H               7.88720000      7.47825000     17.14060000     -0.01092570     -0.02132790      0.01500290       1
O               6.07587000     21.68630000      0.42908200      0.02138740      0.06526960     -0.05301430       8
H               4.89544000     20.46570000     -0.42480200      0.01897880      0.00491765      0.00146327       1
H               6.86123000     23.03750000     22.26220000     -0.03408410     -0.06175690      0.05233630       1
O              12.51680000     10.39950000     -0.12528100     -0.13559700     -0.04353890      0.07079730       8
H              14.08360000     10.70080000      0.11587800      0.16275200      0.02497510      0.05797500       1
H              12.61480000     10.66150000     21.54780000     -0.01908430      0.01360910     -0.13145000       1
O              16.09190000      6.84442000      8.43519000     -0.00823616      0.04224450      0.01333070       8
H              16.45070000      8.60690000      9.36395000     -0.03714260     -0.06200100     -0.02990900       1
H              14.16910000      6.65961000      7.93868000      0.04836320      0.03119650      0.01598680       1
O              14.20370000      4.44034000     22.78010000     -0.00071650     -0.00723074      0.05035600       8
H              13.71210000      4.40105000      1.35286000      0.00841665     -0.00727854     -0.04504980       1
H              13.51090000      6.00699000     22.29340000     -0.00963236      0.01712510     -0.00804686       1
O              14.24010000      3.81810000     12.37470000      0.02640510      0.04634570     -0.08895180       8
H              15.18330000      3.76378000     10.56750000     -0.03621880      0.00813521      0.07106390       1
H              14.33780000      2.21103000     12.98920000      0.00450014     -0.06400270      0.01967130       1
O              10.40060000     19.03470000      5.01969000      0.15096000      0.04151620     -0.08190130       8
H              11.20480000     20.25570000      6.02212000     -0.00294709      0.02027820      0.02843780       1
H               9.02776000     18.40700000      5.55091000     -0.14903400     -0.04918470      0.06108650       1
O              11.03460000      7.50773000      7.59567000      0.03895740     -0.12775500      0.10676700       8
H              10.01990000      6.95984000      9.19427000      0.03459400      0.01511510     -0.04913320       1
H              10.12030000      8.72003000      6.92368000     -0.06172200      0.09323680     -0.05382820       1
O               8.32192000     21.91550000     13.28150000     -0.04926370     -0.00045811      0.01266780       8
H               6.58261000     20.96960000     13.29150000      0.04730580      0.02742270     -0.00266625       1
H               8.09724000      0.15171200     14.31410000     -0.00046596     -0.02620230     -0.01254020       1
O              16.02260000      1.22345000      4.29973000      0.03187390      0.00722400      0.02349900       8
H              16.61330000      0.19176400      2.88410000      0.01026950      0.00995965      0.01243630       1
H              17.51960000      1.79187000      5.56557000     -0.04154640     -0.02137340     -0.04458770       1
O              14.55180000     21.34620000     13.30730000     -0.03147740      0.01873850     -0.15191900       8
H              12.89260000     20.98820000     13.64160000     -0.04845040     -0.01482950      0.01716650       1
H              15.49480000     21.44590000     14.62460000      0.08146050      0.00540530      0.12330100       1
