192
Lattice="25.09691 0.0 0.0 0.0 25.09691 0.0 0.0 0.0 25.09691" Properties=species:S:1:pos:R:3:force:R:3 TotEnergy=-1101.71425 cutoff=-1.0 nneightol=1.2 pbc="T T T"
O       20.09100000      24.16980000       4.39052000       0.00554262       0.00570773       0.02829740
H       19.99640000      23.67830000       2.69870000       0.00397134      -0.00853363      -0.02588140
H       21.11020000      22.89500000       5.25693000       0.00127464       0.00291963      -0.00502647
O       21.24030000       6.09184000      14.43680000      -0.06171790      -0.06451400       0.02275720
H       19.76090000       6.89816000      13.45490000       0.02465440      -0.03399610       0.02532350
H       20.33470000       4.01246000      15.32140000       0.03121630       0.09608770      -0.04183820
O        7.06156000      23.97080000       1.51013000      -0.08085060      -0.01384000       0.00483643
H        6.16284000      23.71960000      24.95585100       0.02251400       0.01037020       0.02442530
H        5.45062000      24.04310000       2.69356000       0.04153400      -0.00484816      -0.03097890
O       15.01150000      23.41920000      13.89440000      -0.06100010      -0.06895620      -0.01298080
H       13.29470000      20.88560000      13.44050000       0.05603990       0.07276300      -0.00373008
H       13.52180000      24.53550000      13.85860000       0.01670090      -0.00357738       0.00038550
O       22.17230000      10.20080000      18.90820000      -0.00002218      -0.02224120      -0.05721190
H       21.66190000       9.06738000      17.37150000       0.01906040       0.02428280       0.04523210
H       20.61070000      10.67050000      19.62730000      -0.01849400       0.00007837       0.01003490
O        2.06699000       5.43520000       0.87826500      -0.13625300      -0.06177060       0.00172053
H        3.40000000       6.29900000       1.29306000       0.10689100       0.06653460       0.03461240
H       24.61170800       6.12398000       4.44658000       0.01779900       0.02673480      -0.04497280
O       12.78780000      20.59290000       7.86456000      -0.03755860      -0.04206550       0.04693060
H       12.46060000      22.31750000       7.70171000      -0.00304152       0.03362000      -0.01261890
H       11.30970000      20.06930000       8.99836000       0.03601290       0.01556230      -0.03823620
O       15.52000000       4.98813000      21.91970000       0.06415070       0.05326170      -0.06003410
H       17.04210000       4.01315000      21.78300000       0.00553918      -0.00593534      -0.00512600
H       14.46310000       4.23416000      22.96660000      -0.06540860      -0.04755980       0.06555520
O       20.55630000      21.54920000      20.76350000      -0.08099270      -0.08228390       0.07596960
H       20.87890000      20.59140000      22.42140000       0.01355810       0.04138460      -0.05712640
H       21.59790000      22.61250000      19.95450000       0.06624190       0.04203390      -0.01859270
O       15.80750000       0.30719000       6.67753000      -0.01051920      -0.07078990       0.09956790
H       15.96680000      23.83670000       8.65094000      -0.00800713       0.07056900      -0.08313370
H       17.37490000      24.89300000       5.92903000       0.01592700      -0.00473466      -0.00919824
O       22.75710000      15.82910000      16.49630000      -0.01327660      -0.02159300       0.01054670
H       22.79400000      14.71090000      15.03400000       0.00599286       0.00510465       0.00851661
H       22.59120000      14.80710000      18.06000000       0.00794594       0.00774831      -0.01696470
O       11.44800000       1.86401000      12.19550000      -0.23078100      -0.05561690       0.25961000
H       12.39310000       2.16277000      11.09670000       0.22248400       0.07156790      -0.25776400
H       10.68140000       3.45405000      12.73000000       0.00672960      -0.01298920       0.00221906
O        9.13945000      19.22700000       3.19214000       0.07777570       0.02669890       0.04435660
H        7.85035000      20.12080000       2.54454000      -0.05219850       0.06726810      -0.02590440
H        8.53586000      17.73930000       2.66480000      -0.02026380      -0.09187550      -0.01542650
O       22.33600000      10.63570000       6.07754000       0.03146300       0.00841538      -0.02355110
H       20.73300000       7.11736000       2.03626000       0.12656700       0.05091040      -0.00581123
H       20.97160000      10.43400000       7.17722000      -0.02005810      -0.00494963       0.01451900
O        9.23993000       6.39997000      15.03040000       0.01331220      -0.14158600      -0.18919700
H        8.13502000       6.35237000      16.18340000      -0.14385400      -0.02516670       0.12309500
H       10.04280000       7.60279000      15.63430000       0.12728000       0.16271100       0.06874200
O        5.83276000      15.41920000       7.26027000       0.28151400       0.10567400      -0.13275900
H        5.09866000      14.46170000       6.25799000      -0.09363380      -0.12449000      -0.14709400
H        4.96208000      15.47630000       8.46104000      -0.18854800       0.01829590       0.27904000
O       14.90160000      10.07040000       2.72748000       0.06337170       0.06301070       0.01729960
H       15.55450000      12.89210000       3.08914000      -0.02037060      -0.10750000      -0.01085520
H       16.59790000       9.03941000       2.85715000      -0.07246220       0.06259080       0.01281010
O        0.68766000       3.08540000       8.23524000       0.00035610       0.02096580      -0.01988040
H        0.28448100       1.40166000       8.62801000       0.00044074      -0.02239890       0.01344110
H        2.46932000       3.35981000       8.42856000      -0.00074015      -0.00222284       0.00327464
O       14.33150000       1.20747000       1.80102000       0.04098780       0.18443000       0.05761190
H       13.97000000      24.96562100       1.05217000      -0.04223750      -0.17528400      -0.09418640
H       14.58050000       0.93612900       3.53112000       0.00863151      -0.01604760       0.03102800
O        3.95578000      21.16540000       8.63980000       0.02705840       0.34375600       0.13232900
H        5.90615000      22.21900000       9.24091000      -0.09090260      -0.05789020      -0.01642860
H        4.18198000      19.78090000       8.10445000       0.06305660      -0.28719800      -0.10886100
O        7.69273000       6.58192000       5.60703000      -0.03319550      -0.02926830       0.00691354
H        8.92655000       7.81967000       5.73302000       0.02748050       0.02860720       0.00167308
H        8.47412000       5.01599000       5.10357000       0.00147195       0.00106540      -0.00101350
O       20.55770000       3.70214000      20.47030000      -0.05083500      -0.03309840      -0.07150720
H       21.88470000       3.35465000      21.51730000       0.05073530      -0.01450080       0.02781560
H       20.60360000       2.32057000      19.04680000       0.00128909       0.04249510       0.04580850
O        9.54849000      10.06660000       0.44413000      -0.02642630       0.03075030      -0.05036070
H       10.70290000      10.09860000       1.72094000       0.03499250      -0.00347587       0.04504990
H        8.61072000       8.54669000       0.47178300      -0.00633870      -0.02124980      -0.00227289
O        1.25291000       1.99195000      22.31340000       0.02368240      -0.06052180      -0.02285910
H        1.18665000       3.15799000      23.60830000       0.00313367       0.04204550       0.04119680
H        2.89006000       1.07602000      22.72430000      -0.03840820       0.02189360      -0.01385540
O       13.16250000      16.75850000      24.78680000       0.09015130      -0.00111508       0.00092922
H       11.67930000      16.16920000      24.25070000      -0.07018670      -0.02985880      -0.02880590
H       12.81020000      18.17260000       0.62999000      -0.01508810       0.03997520       0.03194150
O       17.22220000      19.68080000      10.21020000      -0.09012650      -0.00232489      -0.02797230
H       15.10330000      20.12710000      10.36300000       0.09354580      -0.00661495      -0.01032430
H       18.21180000      20.03510000      11.62670000       0.00131575       0.01554700       0.03010040
O       10.06350000      19.61930000      18.40300000      -0.05195360       0.04262810      -0.10822200
H       10.81760000      18.92810000      19.69160000       0.05527250      -0.04783180       0.09998160
H       11.13640000      20.92630000      17.77470000       0.00210736       0.00813056       0.00612792
O        6.67767000      23.13200000      12.94930000       0.07666500       0.00981589      -0.02419440
H        5.21075000      23.44230000      13.82370000      -0.04084720       0.01026750       0.03054430
H        8.05089000      24.23460000      13.65150000      -0.03352860      -0.01894970      -0.01438510
O       23.59910000      14.57030000       9.85954000      -0.04378880      -0.01965170       0.03459020
H       23.32760000      13.29710000       8.45261000      -0.00372693       0.00177568       0.01088670
H       22.21200000      14.15730000      11.20790000       0.04544990       0.01140430      -0.05630710
O        3.56229000      12.42030000      18.43510000       0.05812670       0.05222300      -0.02806380
H        3.63503000      14.29510000      18.52190000       0.01227130      -0.02362010       0.00141165
H        2.06959000      12.16150000      19.20650000      -0.07169590      -0.02523490       0.03258660
O       22.30180000       5.05704000       4.75486000       0.02334650       0.09251300      -0.08210730
H       21.00230000       4.12900000       5.24087000      -0.09880120      -0.06210920       0.03882740
H       23.51120000       4.28269000       5.63846000       0.07656720      -0.06674470       0.06688950
O        4.71775000      13.81240000      12.57290000       0.18446500       0.02101000       0.14118100
H        4.17559000      13.91070000      14.33840000       0.00936374      -0.00433603      -0.02030290
H        3.41738000      13.69020000      11.72840000      -0.19385200      -0.02112450      -0.12408200
O       10.97750000       1.12046000      19.66060000       0.09124840      -0.00381977       0.00736187
H       12.30220000      24.81529200      20.36180000      -0.04527930       0.05921420      -0.02935470
H       12.08640000       2.70962000      19.14260000      -0.03830370      -0.06109060       0.02093450
O        6.59416000       7.65813000      19.81180000      -0.03233750       0.11182500       0.00285712
H        5.38896000       9.89003000      20.32580000       0.04974410      -0.10260800      -0.02780680
H        5.67224000       6.36766000      20.62240000      -0.01614500      -0.00643095       0.01323660
O       15.06630000      22.16100000      21.97930000       0.03966100       0.08642660      -0.00161313
H       16.91280000      22.63530000      21.72320000      -0.03965450      -0.01260650      -0.00046184
H       15.09300000      20.45880000      21.98570000      -0.00063264      -0.07531350       0.00109262
O        7.92344000       5.03486000      24.48890000       0.07523370      -0.05993020       0.06847540
H        9.50041000       3.56770000       0.81989000      -0.07705820       0.06611870      -0.06398720
H        7.20049000       3.74385000      23.40510000       0.00116490      -0.00369454       0.00229358
O        2.25167000      23.60830000       4.60387000       0.01908880       0.08993110       0.07433260
H        2.95083000      22.65830000       6.22242000      -0.01729480       0.01880810      -0.03200930
H        2.06959000       0.72989000       5.46549000       0.00744676      -0.10160800      -0.04449450
O       19.11020000       7.74594000       1.97208000      -0.01818070      -0.05169290       0.01205940
H       18.59990000       8.19422000       0.24120700      -0.00768774      -0.00302019      -0.01432300
H       19.23810000       5.84865000       2.42127000      -0.07589700       0.00233108      -0.00993335
O       14.39260000      15.31310000      17.16620000       0.02334110      -0.01151690      -0.02808990
H       12.90020000      16.08180000      17.62490000      -0.04208550       0.01585570       0.01161170
H       15.06600000      14.78930000      18.71480000       0.01138960      -0.00396843       0.02246090
O        1.42475000       4.02528000      14.40570000       0.03340520       0.03035610      -0.08174890
H       24.77170600       4.71724000      14.25630000       0.03132960      -0.00170625      -0.00846747
H        2.83367000       4.75879000      12.33440000      -0.05869600      -0.02200030       0.09411420
O        5.67100000       6.29822000      10.97190000      -0.25230400      -0.06085230       0.21266700
H        7.17343000       6.53896000      11.25170000       0.23499800       0.03175830       0.09791090
H        5.90822000       6.44225000       9.48707000       0.00561535       0.02365730      -0.31623900
O       13.03930000       9.90816000      15.60630000      -0.01468720      -0.06481230      -0.03198420
H       12.26500000      10.00600000      13.92470000      -0.00275274      -0.00669261       0.01779590
H       13.49320000      11.54800000      15.72480000       0.02246120       0.07849110       0.01919750
O        9.73395000       1.76420000       4.34449000       0.01929670       0.04468740       0.05131070
H        8.52582000       0.82001200       3.55178000      -0.04871800      -0.03399020      -0.02782250
H       11.10800000       1.46461000       3.29803000       0.03617380      -0.00397793      -0.01793410
O       24.91970000      17.37650000      24.79320000       0.07709410      -0.04188090       0.03509300
H        0.00029000      17.52390000       1.53549000       0.00752818      -0.00234150      -0.02399560
H       23.36180000      17.93920000      24.54170000      -0.08572570       0.03367680      -0.01717200
O       14.27780000      14.16440000       7.39762000      -0.06563740       0.10368000       0.03136320
H       14.20130000      15.75250000       8.66904000       0.00526564      -0.05800010      -0.05946000
H       15.67500000      13.34300000       7.93120000       0.06042860      -0.04484570       0.02138970
O       18.14110000      11.67360000       9.77140000       0.00307898       0.01325160       0.02500790
H       18.26340000      13.40200000      10.40990000       0.00283918      -0.01006730      -0.00532994
H       18.50230000      10.78500000      11.33590000      -0.00312190      -0.00154234      -0.01048980
O        6.08475000       0.93746500      21.51270000      -0.06258430       0.03135510       0.02466510
H        5.08473000       1.11655000      19.97070000       0.00315756      -0.00896617      -0.00264712
H        7.59255000       0.25151600      21.11660000       0.06483020      -0.02470710      -0.02393650
O       24.75585000      22.54120000       0.39482400      -0.05802470      -0.05315330      -0.01865030
H       24.58532100      23.57030000      24.09260000       0.00383809       0.02846470      -0.03067560
H        0.76750900      23.25530000       1.48228000       0.04279670       0.02880280       0.04662000
O       10.39170000      13.32110000      12.67690000      -0.02105450       0.01917450       0.06896640
H        8.77483000      13.08100000      12.01210000      -0.03360090      -0.00417205      -0.01084790
H       11.51720000      13.24160000      11.42090000       0.05167330      -0.00948772      -0.06881970
O        3.17298000       0.09679000      17.51010000       0.09506500       0.09222040       0.01687040
H        2.29347000       1.33359000      16.64000000      -0.02741630       0.02641740      -0.02585110
H        2.49744000      23.70790000      17.54200000      -0.06481420      -0.12104800      -0.00413334
O       16.31120000       7.16078000      12.67240000      -0.02443790       0.05306430       0.02373040
H       16.12880000       8.19719000      11.09660000      -0.00636225      -0.02427130       0.03348400
H       15.29930000       8.14088000      14.21600000       0.03225970      -0.02981590      -0.05906070
O       11.96470000      18.87510000      12.45790000       0.00161137      -0.00021839      -0.00307659
H       11.47680000      18.68730000      14.13900000      -0.02317000      -0.00946792       0.04273660
H       11.29660000      17.30220000      11.78050000       0.00294139      -0.00427520      -0.00403007
O       18.97180000      16.43050000      23.94110000       0.20104400      -0.04054420      -0.33850900
H       18.21470000      16.87740000      25.08350000      -0.22428400       0.12951200       0.32738900
H       19.39520000      14.82480000      24.15740000       0.02394710      -0.08799700       0.01046080
O       17.86810000      15.44380000      13.70660000       0.00637148      -0.01875390      -0.02376960
H       16.90630000      16.71190000      12.83710000       0.00323170       0.00430343       0.00534889
H       18.73060000      16.19620000      15.07150000      -0.00057969       0.01308590       0.01055070
O        0.38677800      19.94040000      15.07600000       0.01453250      -0.07191170      -0.07912290
H        1.17680000      19.20660000      12.79580000      -0.03666410       0.03306760       0.10680200
H       24.12172400      17.37830000      16.28970000       0.02423540       0.04734030      -0.02553290
O       17.19360000      10.04910000      22.32980000      -0.04606430       0.14067400       0.01563770
H       15.37880000      10.34250000      21.77260000       0.04533170      -0.00038080       0.02760990
H       17.28110000       8.46369000      21.96760000       0.01026760      -0.14844800      -0.04026400
O        6.80686000      15.20540000       0.74398500      -0.03071120       0.02385310       0.00876011
H        8.26906000      14.54140000       0.12344200       0.05061470      -0.02396660      -0.01830110
H        5.98484000      13.71300000       1.26965000      -0.01800740      -0.01311090       0.01104150
O       10.01790000      11.29090000       6.25891000       0.07918330      -0.01544850      -0.00722128
H       11.63680000      12.26130000       6.63383000      -0.03892430      -0.01724880      -0.00876176
H        8.67551000      12.20490000       6.84400000      -0.03865370       0.03394480       0.01727070
O       11.73830000      13.18990000      21.09850000      -0.04407850       0.03629340       0.04040770
H       12.64250000      11.88000000      20.48240000       0.02911280      -0.04956230      -0.03627210
H       10.80180000      12.31880000      22.43320000       0.00007602       0.00198766      -0.00385203
O       20.63190000       0.29099000      15.87480000      -0.05538420      -0.02621250       0.03470620
H       21.73450000       0.76599000      14.63460000       0.04028520       0.00515870      -0.04162090
H       19.41750000      24.13800000      15.15370000       0.01613280       0.02612330       0.01114230
O        4.55854000      17.83860000      21.91780000       0.07799020       0.03069920      -0.01210430
H        2.92321000      17.47350000      21.68970000      -0.07648220      -0.01766790       0.00055978
H        5.46238000      16.38700000      22.45020000      -0.00371953      -0.00716667       0.01117320
O       21.89680000      20.56450000       7.84370000      -0.04669810       0.02713250      -0.00105907
H       22.51370000      18.96920000       8.34151000       0.00652300      -0.01917530       0.00551942
H       20.02730000      20.57950000       8.27133000       0.03940720      -0.00913247      -0.00593752
O       14.46800000       5.22584000       7.31730000       0.04178790      -0.05980650       0.09982680
H       13.82630000       3.84892000       6.50213000      -0.01939480      -0.04058140      -0.02321340
H       14.28370000       6.57061000       6.41269000      -0.02277140       0.11209700      -0.07802380
O        1.96683000      12.97320000       2.54268000      -0.05616920      -0.02072170      -0.04207170
H        0.63507700      12.61850000       3.74990000       0.00738062      -0.00225558       0.01552060
H        0.80586900      12.52430000       1.02369000       0.04740240       0.01825010       0.03636070
