192
Lattice="23.58813 0.0 0.0 0.0 23.58813 0.0 0.0 0.0 23.58813" Properties=species:S:1:pos:R:3:force:R:3 TotEnergy=-1102.8744 cutoff=-1.0 nneightol=1.2 pbc="T T T"
O        7.98803000      11.12630000       0.53851800       0.05047070       0.02620560       0.03458930
H       10.67160000      12.11380000       1.71785000      -0.04954470      -0.01070760      -0.01368600
H        6.57610000      12.22380000       1.07295000       0.02689000      -0.00700617      -0.00273482
O       20.39650000      21.19730000      14.01770000       0.00310146       0.04386540      -0.01802990
H       19.29570000      22.75210000      13.82860000       0.01016120      -0.02824630       0.00761621
H       19.34860000      19.77110000      14.45990000      -0.01883690      -0.00803888      -0.00260843
O        7.69409000      18.23450000      13.71780000      -0.01683160       0.01884070       0.03909340
H        9.24904000      17.18750000      13.96440000      -0.00989604       0.02428120       0.01073060
H        6.94286000      18.43780000      15.46080000       0.01002560      -0.01768070      -0.03070810
O       20.28190000       2.35644000       6.74591000       0.00018290       0.00098171       0.06561480
H       20.00440000       2.08590000       5.02244000      -0.00919626       0.01295360      -0.02432700
H       18.75700000       1.80716000       7.68857000       0.01660720      -0.00148236      -0.01898070
O       12.50080000      17.07190000      20.92670000       0.01441170       0.04549620      -0.01169550
H       13.26300000      15.48090000      20.50590000      -0.00555606      -0.01866760       0.02086390
H       11.07560000      17.37230000      22.05440000      -0.00792669      -0.02768850      -0.00227078
O        3.16514000       6.69842000      15.98390000      -0.00604421       0.01046130       0.01419760
H        3.51196000       7.41821000      14.36020000       0.00676650      -0.01122990      -0.00679931
H        3.75411000       5.00598000      16.21640000       0.00394614      -0.00216729      -0.01339900
O        8.18520000       2.37749000      20.94260000      -0.07100010      -0.01589520      -0.06587240
H        6.32532000       2.42974000      18.71030000       0.06177240      -0.00894854       0.05203570
H        7.52611000       0.84954500      21.85910000       0.01886500       0.03232210      -0.01467070
O        4.85661000      15.19710000      18.72170000       0.01627980      -0.05428560      -0.01762050
H        3.54214000      15.17800000      17.43910000       0.00505628       0.00102185       0.00429843
H        5.62638000      13.40490000      18.50240000      -0.01246760       0.04868210       0.00835445
O        8.90269000      17.75450000       1.08221000       0.02882120      -0.03495330       0.02913760
H        7.53295000      16.49910000       1.22458000       0.00169586       0.01717090      -0.00887421
H       10.20160000      17.02400000       2.26246000      -0.02484400       0.01525500      -0.02570290
O       16.42470000      16.29090000       8.07590000       0.08301820      -0.03968670       0.04692220
H       15.92280000      14.76460000       8.94726000       0.00182223       0.00595808      -0.00742304
H       15.03810000      16.93360000       7.37802000      -0.08034570       0.04098720      -0.04204510
O       16.47990000      18.28470000      13.67850000       0.01444550      -0.03093640      -0.05373250
H       15.27680000      17.20980000      14.43670000      -0.01829330      -0.00590683       0.02110900
H       16.57140000      17.36470000      11.98530000       0.00740943       0.02925060       0.03173450
O        2.42858000      16.97850000      10.13760000       0.00510917       0.06046360       0.06201050
H        0.42397300      17.68100000       9.89743000       0.04467050       0.00484208       0.01036500
H        3.44435000      18.11100000      11.83390000      -0.05884830      -0.04985090      -0.07978990
O       22.83730000      21.65210000       4.86531000      -0.01517830       0.05695800      -0.02852100
H       22.44830000      23.43638100       5.35522000      -0.00353111      -0.02772340      -0.01256900
H        0.16827000      21.37240000       6.32008000       0.01665280      -0.03072500       0.04360860
O       23.47130000      10.78650000       0.13425300      -0.03625870       0.01820320       0.02464080
H       21.99010000      10.86680000      22.67690000      -0.00070518       0.00909913       0.00592238
H        0.92794000       9.93475000      22.63760000       0.04047250      -0.02993160      -0.03033530
O        5.06133000       1.66362000      16.23440000      -0.01749550      -0.02678560       0.01825210
H        4.02927000       0.21106100      16.88110000       0.01498010       0.02299150      -0.01166500
H        5.57979000       1.20555000      14.51590000       0.00237673       0.00654320       0.01517590
O       14.11050000       7.38962000       6.60459000      -0.01173840      -0.02567160       0.02399250
H       13.68670000       6.13842000       5.34609000      -0.01440980       0.00666269      -0.01598520
H       13.93770000       6.29512000       8.07294000       0.00554401       0.01337750       0.00070227
O        2.06369000       2.31751000       1.99709000      -0.03491320       0.00126106      -0.00056630
H        2.49672000       4.03339000       1.50452000      -0.00111623      -0.00560808      -0.00231927
H        0.16913800       2.25281000       2.02427000       0.03712630       0.00236993       0.00232363
O       16.11630000       0.93451000      22.81750000       0.15189000       0.29597900       0.22201300
H       15.20400000      23.36690000      23.02973300      -0.21098000      -0.25394000       0.09382260
H       16.27780000       0.62833200      21.35920000       0.06195160      -0.03423680      -0.31946100
O        1.81072000       0.26525400      11.40200000       0.04067480       0.02352570      -0.04477890
H        3.19338000       0.69194600       9.96820000      -0.05833740      -0.01424040       0.04306920
H        0.30709400       1.35582000      11.18560000       0.02811200      -0.01248100      -0.00246995
O       12.85120000       6.23020000       1.46219000      -0.02429410      -0.05875600       0.04365430
H       13.49530000       7.56684000       0.54996600      -0.00972675       0.02439130      -0.03317530
H       11.22950000       5.32825000       1.11042000       0.03577480       0.03275170      -0.01044020
O       23.25210000       9.02442000      18.26950000      -0.02292590       0.00338751       0.00510433
H        0.35079100       7.55706000      17.41050000       0.01503560       0.00444125      -0.00216168
H       21.49960000       8.61176000      18.45880000      -0.00067568      -0.00493805       0.00582718
O       15.15710000      12.67970000      20.02770000       0.02151070      -0.00486800       0.02992170
H       15.92610000      12.37990000      21.73570000      -0.00829063       0.00788536      -0.02914090
H       16.57390000      12.34930000      18.89700000      -0.01019920       0.00344804       0.00491601
O       17.34400000      12.49640000      11.87470000       0.05322960       0.05412150      -0.08646830
H       18.84080000      11.73150000      11.04830000      -0.01912020       0.00924706       0.01095010
H       16.88990000      11.44070000      13.09580000      -0.03190720      -0.06524340       0.07516260
O       14.79170000      23.28120000      13.50180000       0.00608780       0.00051883       0.03418620
H       14.31990000       1.34819000      14.07150000      -0.00628558       0.00248632      -0.00737995
H       15.14130000      22.63280000      15.21750000      -0.00326287      -0.00868664      -0.01833380
O        7.30344000      19.99970000       7.79812000      -0.05930530      -0.04759030      -0.04491450
H        6.35772000      18.74120000       8.79900000       0.02359310       0.02448120      -0.00693394
H        8.67769000      20.79100000       8.48812000       0.03785870       0.01440880       0.05082750
O        1.87929000       8.39208000       5.00620000      -0.00638352       0.04262580       0.07312900
H        0.56113700       8.87155000       3.98830000      -0.01556370      -0.01080120      -0.04895370
H        3.30964000       7.40211000       5.21870000       0.02480020      -0.02753030      -0.02102690
O        8.05172000      13.97760000      10.11550000       0.00911067       0.01576370       0.01608510
H        8.11719000      14.90730000      11.72420000      -0.00561274      -0.01252710      -0.02678370
H        9.60927000      14.43710000       9.24879000      -0.01188390      -0.00982102       0.00852085
O        4.67429000       6.53677000      22.92160000      -0.01177310       0.01001990       0.00435854
H        5.26314000       8.10160000       0.05827000       0.00500802      -0.00022386       0.00205906
H        6.00036000       5.36564000      23.25510000       0.00983273      -0.00902595      -0.00689280
O       18.29920000       7.60919000       4.16872000       0.02669770       0.01057310       0.00129315
H       16.68350000       7.00243000       4.68757000      -0.00179121       0.00276956       0.00086566
H       19.17260000       7.72668000       5.77189000      -0.00198409      -0.00268681      -0.01220660
O        9.75885000      22.56830000      11.46850000      -0.07962350      -0.02359320       0.03573370
H        7.89684000      21.07830000      13.22720000       0.06546720       0.01054030      -0.05893250
H       11.15960000      22.11540000      12.44860000       0.02759910      -0.00227701       0.01489950
O        1.99996000      22.12220000      20.79670000      -0.02638300      -0.01194960      -0.03517580
H        1.68792000      22.75460000      22.44510000       0.00558965      -0.00337088       0.02020950
H        0.59753300      20.95170000      20.38250000       0.02150910       0.00795981       0.01591250
O        2.24102000      13.79830000       5.46065000       0.01223360      -0.00073715       0.02224360
H        2.38645000      11.92030000       5.82880000       0.00760557       0.04018510      -0.00231663
H        3.25557000      14.95300000       6.62093000      -0.02504850      -0.03922560      -0.01915140
O       12.43450000       2.77971000      17.97450000       0.00452551      -0.00158665      -0.01343380
H       11.00880000       2.31445000      19.11000000       0.00878239       0.01573790       0.00243324
H       13.58770000       4.00543000      18.67140000      -0.01490180      -0.01002670       0.01023700
O       19.64390000      19.27340000       1.11551000      -0.02047020      -0.03849050       0.01490990
H       19.95740000      20.38200000       2.50768000       0.01177980       0.00987754       0.00326410
H       19.53020000      17.64360000       2.07831000       0.01467280       0.02280290      -0.01680410
O       16.36040000      20.98590000      18.42320000      -0.00227197      -0.01808770       0.00227897
H       15.41770000      19.57140000      19.17740000       0.01120830       0.01736810      -0.00846628
H       17.96760000      20.27000000      17.85630000      -0.01290280       0.00311921       0.01377450
O       20.67510000      15.04840000       4.39216000       0.01236860      -0.00079040       0.04824310
H       19.98730000      15.15080000       6.12753000      -0.00201940       0.00612079      -0.02581190
H       22.49720000      14.80240000       4.83099000      -0.00942051      -0.00001643      -0.01693090
O       12.47700000      19.25170000       5.67149000       0.01353340      -0.00334362       0.02545110
H       10.79520000      18.61370000       5.48051000      -0.00384018       0.01573760      -0.00528599
H       13.15060000      20.29010000       4.31237000      -0.01456820      -0.01462110      -0.00817827
O       15.60780000       9.52030000      15.67710000       0.09227170       0.01520590       0.02357880
H       16.70830000       8.09106000      15.42410000       0.02012600       0.01289000       0.01135680
H       14.25930000       8.65160000      15.17930000      -0.10301100      -0.02295990      -0.02779980
O        2.96702000      13.34080000      13.52360000       0.00888386      -0.02065750       0.01669530
H        2.70928000      14.78950000      12.48050000      -0.00606322       0.01438640      -0.01649610
H        4.42425000      12.55950000      12.77090000      -0.00631862      -0.00140312       0.00040520
O       12.95790000      13.23840000       2.84846000      -0.20681000       0.01728600       0.09090130
H       12.94630000      13.33080000       4.70844000       0.01201960      -0.00518952      -0.02198390
H       14.32980000      13.07130000       2.06050000       0.17033200      -0.02422810      -0.07778490
O       15.89620000       0.73478400       8.38435000       0.15077900      -0.06879410      -0.20064000
H       15.24810000      22.65070000       8.40232000       0.01932290      -0.03705950      -0.02807780
H       14.91890000       0.99762500       9.50905000      -0.17562800       0.09987780       0.23368500
O       20.99280000      18.27330000      19.31650000      -0.01082290       0.01687140       0.00097335
H       20.79760000      16.66100000      18.50930000       0.00251792      -0.01124090       0.00311732
H       19.76460000      18.39440000      20.67990000       0.01606340      -0.00425553      -0.00270356
O       20.36940000      13.32500000      17.27350000      -0.01646530       0.01369770       0.01220910
H       19.51860000      13.48140000      15.70210000      -0.00028923      -0.00094344      -0.01311390
H       21.43450000      11.87560000      17.20380000       0.01825340      -0.00749842      -0.00478231
O       11.78630000      16.27900000      16.01940000       0.02124400       0.01646270       0.04630770
H       12.10060000      14.85060000      17.13570000      -0.00931481      -0.00869739      -0.02207560
H       12.04740000      17.52350000      17.48610000      -0.01450920      -0.01523650      -0.03540140
O        7.42283000      10.31250000      18.91670000      -0.02853620      -0.01818470      -0.02564160
H        8.10576000       9.39102000      20.30150000       0.00855717       0.00750586       0.01672460
H        5.85202000       9.34146000      18.67050000       0.01374620       0.00823448      -0.00443970
O       18.99260000       2.97593000      15.90870000      -0.05098580      -0.04511250       0.05225730
H       19.76940000       3.83762000      14.70140000       0.04390220       0.05143380      -0.08070190
H       20.39360000       2.51876000      16.90400000       0.01482150      -0.00614297       0.03106950
O       22.57050000       2.95667000      20.09960000      -0.01147060      -0.04370480       0.02358400
H       23.14120000       1.17015000      20.41600000       0.01084280       0.02955870      -0.02083090
H       21.45450000       2.91805000      21.56280000       0.00045257       0.01430670      -0.01203230
O       21.47530000       5.06721000      11.32550000       0.01968530       0.02822270       0.01298420
H       20.97590000       4.27344000       9.80001000      -0.00145796      -0.00462795      -0.02328270
H       22.48380000       6.59069000      10.87290000      -0.02135340      -0.03180760       0.01417630
O       12.92020000      12.29970000       8.64442000       0.01906490      -0.01586620      -0.01215610
H       13.74880000      12.21470000      10.26650000      -0.00654758       0.00247549       0.00180375
H       13.78990000      10.88880000       7.79832000      -0.01641500       0.00518659       0.00298654
O       14.42500000      20.30950000       1.24621000      -0.00479533      -0.00145900      -0.00235799
H       15.99250000      19.40950000       1.10761000       0.02055650       0.00708634       0.00646529
H       13.51410000      19.43000000      23.56100000      -0.01271510      -0.00380488      -0.00886628
O       19.86280000       2.94685000       2.09699000      -0.00597219      -0.09112610       0.04158450
H       19.95520000       4.20957000       1.00171000      -0.00491894       0.07757550      -0.05130420
H       18.26800000       2.04006000       1.81975000       0.01163900       0.01102790      -0.01458260
O       11.03170000       9.00037000      13.61350000      -0.01722140      -0.02681520       0.00984521
H       11.14780000       7.17977000      13.27770000      -0.00440157       0.01844570      -0.00098415
H        9.72926000       9.06720000      14.93630000       0.01379310       0.00297886      -0.00598556
O        2.29323000      19.95030000      15.02750000       0.02212190       0.02822520      -0.03381670
H        2.41144000      21.23940000      13.51360000      -0.02590840      -0.02465430       0.05037010
H        1.13661000      20.43520000      16.35830000       0.00286570       0.00379902      -0.01901900
O       16.06650000       5.14408000      12.05450000      -0.30135800      -0.12143700      -0.00392892
H       15.66260000       4.81993000      13.83470000      -0.00856133      -0.00940423      -0.02274860
H       17.41760000       5.74096000      12.26540000       0.30377200       0.13036400       0.01993760
O        4.93773000       0.83625100       6.40176000       0.00110668       0.00457522       0.00004210
H        3.94611000       0.92695900       4.84643000       0.00688993       0.00297800       0.00362768
H        6.44058000      23.40620000       6.11625000      -0.02071900      -0.00322266       0.00123798
O       21.65530000      19.56680000       9.45604000      -0.09236570      -0.02454660       0.02933810
H       21.02190000      20.70690000      12.05500000       0.01187870      -0.01846970      -0.02889160
H       19.68680000      18.87610000       9.03948000       0.09302460       0.02775030       0.01419100
O        8.20527000      23.18080000       1.30521000      -0.03028060      -0.03703880       0.00581515
H        9.31039000      21.73530000       1.20215000       0.00346194       0.00560585       0.00195542
H        6.58342000      22.18760000       1.16709000       0.01739760       0.01673920       0.01036520
O        6.41303000       5.87740000       6.77010000      -0.01046020       0.01798250      -0.00188214
H        8.19029000       6.13144000       6.74531000       0.00825323      -0.00699476      -0.00592793
H        6.04271000       4.12852000       7.06653000       0.00314236      -0.01282000      -0.00347470
O       18.29830000      12.27060000       1.14986000      -0.11639000       0.16331800      -0.07788840
H       18.98840000      10.91370000       1.51626000       0.08581050      -0.19328200       0.05222050
H       18.86310000      13.36710000       2.43284000       0.01705650       0.02314910       0.01971150
O       22.58790000      10.18250000      10.40720000      -0.08592970       0.10584400       0.10112500
H       23.36368300      11.85970000      10.44840000       0.00147600      -0.01830170       0.00494408
H       23.43140000       9.29439000       9.35930000       0.08903810      -0.07768650      -0.11307800
O        3.85946000      15.23710000       0.09477000       0.21094100       0.18574200      -0.15490500
H        4.16463000      14.68100000      21.90450000      -0.00735564       0.01982270       0.01738430
H        2.91289000      14.27570000       0.73644400      -0.20644500      -0.20788000       0.14168100
O       11.17010000       2.44953000       5.30055000      -0.00718686      -0.04164430       0.01754020
H       11.76180000       0.93766300       6.23644000       0.00296068       0.02892940      -0.00917890
H        9.64847000       1.65265000       4.63994000       0.00410855       0.01568390      -0.01051100
O        3.63993000      19.87550000       1.94026000       0.01432930       0.06319800       0.03934570
H        2.98767000      18.31020000       1.53703000      -0.01278090      -0.04034570      -0.01235790
H        2.93307000      20.42460000       3.57521000       0.00486381      -0.01130280      -0.02846940
O        5.65662000       8.28167000      11.21210000      -0.05812150       0.07534970       0.21089400
H        7.04322000       9.31442000      11.87340000      -0.01617250      -0.00629376      -0.00160366
H        6.26004000       7.89551000       9.82373000       0.06933460      -0.06551390      -0.20456700
