192
TotEnergy=-1103.42731000 cutoff=-1.00000000 nneightol=1.20000000 pbc="T T T" Lattice="24.49594000       0.00000000       0.00000000      -0.00000100      24.49594000       0.00000000      -0.00000100      -0.00000100      24.49594000" Properties=species:S:1:pos:R:3:force:R:3:Z:I:1
O              25.00690000     -1.26647000    -35.68580000     -0.05163130     -0.04194750      0.01125510       8
H              23.07590000     -1.81517000    -35.34810000      0.06164570      0.01407550     -0.01565590       1
H              25.92680000     -2.87706000    -36.07350000     -0.01433280      0.01839540      0.00022398       1
O              51.88630000     48.34470000     -1.10115000      0.02039110      0.03330290      0.13780000       8
H              50.84360000     49.78080000     -1.06784000     -0.01893410      0.01823880      0.00750423       1
H              51.81910000     47.87360000     -2.64805000     -0.00066794     -0.04895620     -0.15008300       1
O              12.66280000      1.17852000     18.01030000      0.01431230     -0.00983440      0.01951820       8
H              12.97540000      2.84314000     18.83110000     -0.00984846     -0.01532440      0.00339778       1
H              13.43840000     -0.15667900     19.09570000     -0.01189040      0.02258740     -0.02269470       1
O              -2.35856000    -13.58880000     -1.53397000     -0.02994530     -0.03089300      0.03046780       8
H              -1.23826000    -14.13070000     -2.74935000      0.03328740     -0.01664770     -0.03435910       1
H              -2.19914000    -11.85220000     -1.37137000      0.00806210      0.04871090      0.00044585       1
O               6.40729000     36.29210000     17.35100000     -0.00710398      0.06188100      0.06241920       8
H               6.60898000     36.18140000     19.28890000     -0.00130398     -0.00378945     -0.05102330       1
H               6.57623000     34.67990000     16.77050000      0.00742708     -0.06517100     -0.01809940       1
O              -6.84998000     12.14330000      6.66287000      0.08161260     -0.14321700     -0.01553220       8
H              -7.65130000     13.55370000      6.64910000     -0.07458100      0.13781500     -0.00103806       1
H              -7.02302000     11.50940000      4.93548000     -0.00212283     -0.00085416      0.01704560       1
O              44.22600000     29.70530000     13.12420000      0.13758000      0.17698200     -0.07304100       8
H              45.95050000     29.03950000     13.09070000     -0.00695478      0.01251130     -0.02217380       1
H              43.48430000     28.49280000     13.74610000     -0.13697300     -0.18238400      0.09114000       1
O               2.06822000    -37.01880000      9.01783000      0.01838970     -0.03101410      0.05788140       8
H               2.66709000    -38.73970000      8.48388000     -0.01091840      0.01820660     -0.01199090       1
H               2.55398000    -37.16850000     10.97820000     -0.00807753      0.02492560     -0.05345220       1
O              34.77670000    -33.75960000     16.19880000      0.10457400      0.02836530     -0.00570602       8
H              33.70970000    -35.06420000     15.92550000     -0.05518830     -0.05765720     -0.00559715       1
H              36.53390000    -34.61250000     15.93190000     -0.05210600      0.02512220      0.00452345       1
O              10.54740000    -28.02090000    -25.25760000      0.01862670      0.02647520     -0.03280690       8
H              12.41490000    -28.17770000    -25.24510000     -0.01046820     -0.00558027      0.01140530       1
H               9.85701000    -29.05640000    -24.01720000     -0.01085180     -0.02375100      0.02606210       1
O             -12.70420000      6.12415000      8.47966000     -0.06401490     -0.00139497      0.01824950       8
H             -11.67410000      7.56400000      9.00277000     -0.01238700     -0.00750583      0.00983083       1
H             -14.63210000      6.00950000      9.17253000      0.07599620      0.00856794     -0.01244810       1
O             -10.02160000     28.39750000     50.12570000     -0.06532510     -0.00056628     -0.00342439       8
H             -11.53040000     27.14700000     50.17730000      0.02196130      0.03288200      0.00677175       1
H              -8.69775000     27.29060000     50.00190000      0.05276690     -0.02960060      0.00582161       1
O              11.01930000    -30.76370000    -18.05870000     -0.03086730     -0.00726128     -0.03750430       8
H               9.88618000    -31.16300000    -19.72770000      0.02764460      0.00054289      0.04242510       1
H               9.76169000    -30.93230000    -16.74250000      0.01068630      0.00393349      0.00069407       1
O              27.27760000     13.68790000     38.13270000     -0.00262566     -0.01495300      0.00650921       8
H              25.37040000     13.58470000     38.34530000      0.02859980     -0.00158694      0.02132570       1
H              28.28910000     12.76800000     39.43910000     -0.02472880      0.01787560     -0.01278480       1
O               2.81778000     -1.01206000      4.33001000      0.04708390      0.02799410      0.01317610       8
H               4.07503000     -0.32804000      5.60080000     -0.02984550     -0.02260210     -0.01116900       1
H               3.82800000     -0.71630600      2.80348000     -0.01976440     -0.00728362      0.00589800       1
O             -34.65650000     26.08060000     33.38640000      0.04475590     -0.02123620     -0.02726150       8
H             -32.84250000     26.19390000     32.56570000     -0.04645060     -0.00645640      0.03701900       1
H             -35.24410000     27.75880000     33.61710000     -0.01268030      0.02219650     -0.00794979       1
O             -31.80510000     11.21140000     23.00550000     -0.10385600     -0.02341190     -0.06296330       8
H             -32.60140000     10.56840000     21.28090000      0.01099130      0.02637170      0.05846650       1
H             -30.17090000     10.84660000     22.67350000      0.08216320     -0.01359660     -0.00422959       1
O             -21.33990000     64.20160000    -19.92730000      0.00135947     -0.03077880     -0.02480620       8
H             -21.55050000     63.37560000    -18.25930000      0.00341820      0.00334102     -0.01968920       1
H             -21.44560000     62.79190000    -21.26630000      0.00251407      0.02482330      0.04145390       1
O              68.67070000     21.67870000     38.33630000     -0.02474210      0.03915030      0.03106650       8
H              67.52410000     23.25100000     38.44860000      0.01973130     -0.03261160     -0.01512560       1
H              68.62630000     21.12680000     40.09600000      0.00323738     -0.00594925     -0.01202400       1
O              59.38730000    -11.40370000      0.83996300     -0.18575100      0.06741420     -0.10896100       8
H              58.19760000    -12.41790000     -0.52655900      0.05856720      0.02073510      0.05236080       1
H              60.64490000    -12.23010000      1.39352000      0.13098100     -0.10028800      0.05105630       1
O              28.15150000     18.88610000    -12.29050000     -0.11154900      0.01969570      0.01124690       8
H              29.69920000     19.41890000    -12.65620000      0.09065300      0.00404349     -0.01185280       1
H              27.96180000     17.17110000    -11.92920000      0.00774115     -0.03343680      0.00811301       1
O             -17.75240000      6.37554000     64.95360000      0.02090730     -0.04157370      0.03808220       8
H             -15.97310000      6.27128000     64.45180000     -0.01835620      0.00191476      0.00115004       1
H             -17.80330000      5.04329000     66.44950000     -0.00196329      0.04507570     -0.04000560       1
O              10.14640000      1.39122000      1.65112000      0.00136814      0.03943490      0.00337364       8
H              10.16600000      0.40788200      3.13355000      0.00459074     -0.00364830      0.04107450       1
H               9.94301000      0.14050600      0.46578700     -0.00724769     -0.03649590     -0.04521940       1
O              43.52100000      0.83791500     34.10360000      0.08228650     -0.02576400     -0.05865630       8
H              44.92670000      1.97785000     34.44680000     -0.01796110      0.01009830      0.01331810       1
H              44.79480000     -0.11005800     32.78540000     -0.05416650      0.01551260      0.03282860       1
O              -2.65842000     63.11880000     34.33770000      0.13437300      0.02787980      0.07206240       8
H              -3.48218000     62.32800000     33.13020000     -0.06126590     -0.05289210     -0.07993760       1
H              -0.67015500     62.32210000     34.17690000     -0.06411170      0.02011910     -0.00657206       1
O               8.19483000     36.78920000     11.63660000     -0.02678790      0.07902760      0.06616140       8
H               8.25377000     36.29950000      9.99942000     -0.00187880     -0.02090880     -0.07567680       1
H               7.57326000     38.63030000     11.52310000      0.01722080     -0.05664750      0.00513490       1
O             -14.39970000     19.26230000     18.70300000     -0.00754245     -0.01587310      0.01867590       8
H             -14.67870000     17.40470000     18.24110000      0.00525630      0.03097080      0.00855515       1
H             -14.85470000     19.67670000     20.47760000      0.00500186     -0.01006710     -0.01669870       1
O              28.07650000     34.73000000     51.05760000     -0.00415434      0.04188090     -0.04262580       8
H              28.86920000     33.71270000     52.26240000      0.00335464     -0.02545170      0.02734130       1
H              26.46330000     34.10240000     50.51510000      0.00449601     -0.01483000      0.00922260       1
O               6.91605000     28.82460000     20.86570000     -0.03071960     -0.02813340     -0.00044794       8
H               8.67023000     28.72730000     21.19070000      0.02122040     -0.00621759      0.00514042       1
H               6.17996000     27.13980000     21.27990000      0.01403480      0.02959500     -0.00490495       1
O               3.59116000    -24.45730000     17.44700000     -0.00884805     -0.03416790     -0.01799180       8
H               2.45479000    -25.57590000     16.37060000      0.01838330      0.02877010      0.01680900       1
H               5.29723000    -25.09410000     16.96720000     -0.01279540      0.01495070      0.00202102       1
O               1.14390000     18.71010000      0.72951800     -0.04632300     -0.05869160     -0.02089780       8
H               1.61570000     18.11600000      2.30382000      0.01356490     -0.01249280      0.03784980       1
H               1.89413000     20.19380000      0.43112800      0.03538870      0.07585170     -0.01130300       1
O              -0.44162300      3.33892000     11.01120000     -0.01140310      0.01354490      0.03968330       8
H              -0.17843600      3.60404000      9.30795000      0.00075452      0.02403310     -0.05119340       1
H               0.18932700      1.69113000     11.13510000      0.01220390     -0.03595350      0.02241280       1
O             -36.39440000     54.18800000    -27.84570000      0.02607750      0.02449740     -0.02249130       8
H             -35.37250000     55.57670000    -28.59420000     -0.02472940     -0.00335536     -0.00916097       1
H             -35.11380000     53.72240000    -26.63280000     -0.00979255     -0.01193750      0.02467630       1
O               9.17564000     55.11530000    -20.22500000     -0.08874270      0.03516910     -0.00943174       8
H              10.05420000     55.73140000    -18.87110000      0.05281550     -0.01197160      0.02446670       1
H               9.60190000     54.08360000    -21.53420000      0.03547190     -0.03299530     -0.02395910       1
O             -40.93720000     41.39690000      2.79554000     -0.09535590      0.05177520      0.06128920       8
H             -40.34050000     40.18580000      1.72754000      0.02569260     -0.05593110     -0.03544750       1
H             -42.83360000     40.91870000      3.45833000      0.06064090      0.01192450     -0.01993580       1
O              14.85490000     33.61850000     18.15650000      0.02657980     -0.01116940      0.04841070       8
H              16.63870000     33.91140000     17.76800000     -0.00681344     -0.00918627     -0.00615175       1
H              13.92240000     34.13640000     16.77130000     -0.02631040      0.01621230     -0.03979640       1
O             -16.70540000    -13.35210000      6.46808000      0.04496730      0.00792962     -0.03575570       8
H             -16.33560000    -12.10780000      5.10914000     -0.01590720     -0.00809235      0.02099070       1
H             -15.21950000    -14.41220000      6.04902000     -0.02530050      0.00673560      0.01081310       1
O             -48.99600000      4.14858000     17.40510000      0.04357630     -0.05141880      0.02888390       8
H             -47.56280000      2.78593000     17.30660000     -0.03383860      0.03125450     -0.00428837       1
H             -49.74080000      4.32984000     15.82030000     -0.00387028     -0.00456651     -0.02898450       1
O             -20.81500000    -17.02650000     31.21230000      0.07169540      0.01184950      0.02995210       8
H             -19.31490000    -17.95100000     32.07810000     -0.04529260      0.02417490     -0.02443090       1
H             -22.12930000    -18.17940000     31.20020000     -0.02715840     -0.03315440     -0.00099375       1
O              17.55070000     15.56310000     25.05040000      0.00658635      0.09024370      0.07378760       8
H              16.87200000     15.75530000     26.81990000      0.01482220     -0.00438198     -0.03431300       1
H              17.06880000     14.09560000     24.34200000     -0.02748340     -0.07396320     -0.03101380       1
O             -18.51660000     -0.62445500     33.66750000      0.07672790     -0.08389280      0.02623750       8
H             -16.52420000     -0.87490500     32.63590000     -0.06034500      0.01132630      0.03461740       1
H             -18.42710000     -2.30631000     35.08970000     -0.00307960      0.08906230     -0.07346610       1
O              40.28520000      9.01288000     34.83970000      0.09781120     -0.02085060     -0.00421787       8
H              41.86870000      7.94131000     35.52030000     -0.06548090      0.02730630     -0.01085010       1
H              41.35110000     10.01740000     33.58170000     -0.03327380     -0.00512446      0.01091560       1
O              -4.53323000    -31.43170000     -6.24719000     -0.07160560      0.11483300      0.09864180       8
H              -3.65024000    -32.20660000     -4.96465000      0.02375380     -0.01128290      0.05027610       1
H              -4.13360000    -32.28710000     -7.52801000      0.04301080     -0.09826600     -0.15491500       1
O              55.53870000    -19.94410000    -14.07290000      0.12048400     -0.00421523     -0.15485500       8
H              54.65410000    -19.58600000    -12.82300000     -0.11083700      0.05879680      0.16974400       1
H              55.12140000    -21.61370000    -14.39050000     -0.00164568     -0.05320060     -0.01639700       1
O               8.46694000     -1.51705000     15.66480000      0.04908040      0.04548930      0.01165350       8
H               9.99203000     -0.22114700     15.90470000     -0.05427290     -0.04611070     -0.00102621       1
H               8.90116000     -2.93034000     16.80230000      0.00291892      0.00791300     -0.00328908       1
O             -33.23700000     -3.94194000     48.24930000     -0.01496920      0.00823348     -0.00678527       8
H             -33.53890000     -3.43328000     46.43570000      0.01542320     -0.01902550      0.01739740       1
H             -32.84270000     -5.74207000     48.20840000      0.00398586      0.00741322      0.00324591       1
O              12.53480000    -13.53970000    -10.80650000      0.10105100     -0.01613850     -0.01434420       8
H              10.90510000    -13.37090000    -11.35810000     -0.05167890      0.00920120     -0.02664080       1
H              13.79800000    -13.87580000    -12.37880000     -0.04027550      0.00477509      0.05409540       1
O              19.83840000     18.77880000      9.31791000     -0.05647360      0.05492240     -0.03873100       8
H              19.38730000     19.62470000     10.82320000     -0.00121213      0.01321660      0.01945030       1
H              20.97550000     17.57860000      9.69188000      0.05430730     -0.06246930      0.01726890       1
O              14.98550000     20.58290000     -5.37608000     -0.06445560      0.01851000      0.00595944       8
H              13.28990000     19.66830000     -5.39805000      0.02198330      0.01712350     -0.00829055       1
H              16.15960000     19.54320000     -6.12474000      0.03797320     -0.03028070     -0.01752940       1
O              21.48900000     46.96820000     30.29840000      0.02957660      0.01387290     -0.01551500       8
H              20.75690000     45.57090000     31.19710000      0.00595915     -0.01519170      0.00507907       1
H              23.31920000     46.67370000     29.93780000     -0.03315970     -0.00057644      0.00997916       1
O             -10.05730000      9.62432000      2.54569000     -0.05350410     -0.04127860      0.06675110       8
H              -9.08100000      9.45786000      1.14638000      0.03981600     -0.00075361     -0.05844790       1
H             -10.67080000      7.82998000      2.85484000      0.01417380      0.04219100     -0.00552883       1
O              15.78110000    -23.08990000     14.00520000     -0.05382720     -0.00196727      0.01582580       8
H              14.59340000    -23.25640000     12.53500000      0.03406740      0.00114892      0.01662090       1
H              14.50200000    -23.05580000     15.50470000      0.03602730     -0.00478821     -0.03103440       1
O              -2.25963000     13.58010000     39.16180000     -0.00202261     -0.03112730      0.00454347       8
H              -2.62293000     11.71780000     39.66840000      0.00158215      0.06099060     -0.02838060       1
H              -2.69560000     14.09960000     37.35140000     -0.00541377     -0.03174570      0.02655610       1
O              46.49200000     40.80770000     -1.73672000      0.00763225     -0.02829160     -0.03807770       8
H              47.33420000     41.85970000     -0.63322000      0.05502040      0.03707860      0.01593510       1
H              45.12560000     40.66360000     -0.66316500     -0.06255230     -0.01590320      0.01831700       1
O              25.18270000      8.52449000    -30.37700000      0.00604006      0.02135830      0.00828339       8
H              26.71060000      9.54473000    -30.09970000     -0.01566960     -0.02604670     -0.01171900       1
H              25.34660000      6.66994000    -30.90650000      0.00850958      0.02603800      0.01105840       1
O             -13.68910000     48.24620000      6.48612000      0.01626700      0.01594650      0.01924910       8
H             -12.00440000     48.98480000      7.57430000     -0.03865420     -0.01317960     -0.02929710       1
H             -13.46100000     46.56660000      5.79946000      0.00897276     -0.00234925      0.01635430       1
O               8.68696000    -29.64190000     36.71540000      0.01320380     -0.19582900     -0.02524060       8
H               9.47594000    -31.03670000     38.05450000     -0.03375480      0.05271540     -0.05338250       1
H               8.99424000    -28.23960000     37.47280000      0.02962760      0.13563700      0.07245740       1
O               0.09577700     28.15190000      5.95057000      0.01361810     -0.00882679      0.12677400       8
H               0.53922200     26.60550000      5.39114000      0.02346330     -0.07062230     -0.02348580       1
H              -0.32258500     29.01430000      4.62113000     -0.03888800      0.07724260     -0.11126000       1
O              -8.13430000     -7.47484000      5.78316000     -0.09038110     -0.00630646     -0.03434580       8
H              -9.92201000     -7.03722000      6.38741000      0.01851230     -0.01200150     -0.03569310       1
H              -7.48933000     -7.04851000      7.29834000      0.06353420      0.02170590      0.06573910       1
O              -4.85089000      8.98665000     17.17950000      0.01102360     -0.00495826     -0.01451180       8
H              -3.45801000      9.22991000     18.27240000      0.01474000      0.00347120      0.01497770       1
H              -4.23833000      7.70655000     16.01420000     -0.01376420      0.00033991     -0.00131551       1
O              23.80300000    -17.78070000      1.63066000      0.00884555     -0.03238560     -0.01729130       8
H              23.33840000    -18.91680000      0.19281500      0.00457013      0.01215770      0.02355330       1
H              22.66520000    -16.42510000      1.51904000     -0.01679250      0.01760100     -0.00383785       1
O              22.31590000      2.55754000     47.73570000      0.02057900      0.00961506      0.00738169       8
H              21.02210000      1.49597000     48.37730000     -0.01790570     -0.01301810      0.01752140       1
H              21.95990000      2.66864000     46.00870000     -0.00000528      0.00458892     -0.02897320       1
O              18.53480000     24.39330000     50.43390000      0.02380390      0.06121570     -0.00900358       8
H              19.57240000     23.70210000     51.70990000      0.00164237     -0.01920100      0.01690690       1
H              17.26050000     23.36690000     49.81750000     -0.01934610     -0.04528610     -0.00626058       1
O             -16.99460000      9.95090000     22.20300000     -0.02031830      0.02911250      0.00970566       8
H             -16.53060000      8.26388000     21.77100000     -0.00591769     -0.00762709      0.00553263       1
H             -18.53930000     10.01360000     23.25940000      0.01698720     -0.01498720     -0.00569073       1
