192
TotEnergy=-1103.41346000 cutoff=-1.00000000 nneightol=1.20000000 pbc="T T T" Lattice="24.00134000       0.00000000       0.00000000      -0.00000100      24.00134000       0.00000000      -0.00000100      -0.00000100      24.00134000" Properties=species:S:1:pos:R:3:force:R:3:Z:I:1
O              18.37850000      3.46820000    -30.48930000      0.01797950      0.00568562      0.03277380       8
H              19.36930000      2.64571000    -29.13140000     -0.00712975      0.01442000     -0.01905690       1
H              17.48050000      2.18981000    -31.34300000     -0.00967538     -0.02218670     -0.00932544       1
O              49.81400000     44.63580000      9.16282000      0.01206620      0.00038983      0.00776175       8
H              50.36430000     42.80690000      9.55982000     -0.02965210      0.03521970     -0.02249870       1
H              48.65560000     45.26030000      7.79317000      0.01597740     -0.03089820      0.01263480       1
O               9.25224000      1.06216000     15.72300000      0.00259979     -0.06006710     -0.01567000       8
H               9.86156000     -0.73049000     15.30240000     -0.00851780      0.05252070      0.01229170       1
H               7.34552000      0.86520300     16.09700000      0.04127210      0.01459670      0.00192955       1
O              -4.22259000    -10.18590000     -0.49314200      0.00243470      0.01789490      0.00382603       8
H              -4.76643000     -8.43858000     -0.05137800      0.00508057     -0.02791560     -0.00295004       1
H              -3.63544000    -11.15250000      0.96433500     -0.00522168      0.01297130      0.00228993       1
O               7.00779000     29.78210000     21.01910000      0.05518600      0.06111630      0.02337630       8
H               7.38448000     31.29810000     22.30800000     -0.01222750     -0.05921430     -0.05218150       1
H               8.79309000     29.50350000     19.98930000     -0.03945510     -0.00095899      0.02549240       1
O              -0.54842100     13.02080000      8.38217000      0.04421530      0.03822150      0.03609320       8
H              -1.18331000     11.86260000      7.16995000      0.02262360     -0.00801688     -0.02490410       1
H               1.38024000     13.60730000      8.36750000     -0.06975060     -0.02152540     -0.01037240       1
O              37.17860000     22.06640000     11.47560000     -0.04491780      0.01532990      0.05070610       8
H              37.69130000     20.78120000     10.43360000      0.02805290     -0.03867820     -0.04660770       1
H              35.75080000     21.13240000     12.35710000      0.03169420      0.03467100     -0.01020210       1
O              -1.97101000    -24.83870000     11.80960000     -0.00733931      0.01275840      0.00676192       8
H              -0.39092700    -25.05930000     10.97770000      0.01596140     -0.02004230     -0.00344567       1
H              -2.53653000    -23.37280000     10.90960000     -0.01225150      0.00742509      0.00126130       1
O              29.36390000    -34.18060000     17.62650000      0.06325060     -0.03764110     -0.01650480       8
H              31.28020000    -34.18810000     17.14190000     -0.05565900      0.00315651      0.02370490       1
H              28.85070000    -32.51680000     17.30780000     -0.00671371      0.03228020      0.00024187       1
O               6.15569000    -27.59910000    -25.89700000      0.00512381     -0.04735800      0.04365120       8
H               7.81757000    -28.82910000    -25.77910000     -0.05088820      0.03974150     -0.01023980       1
H               4.87553000    -28.28060000    -24.51230000      0.04234330      0.01132030     -0.03600000       1
O             -11.04160000      1.69359000      4.93489000     -0.07774890     -0.00475574      0.05115830       8
H             -13.08420000      1.66894000      4.89834000      0.06143310     -0.01328980      0.00027117       1
H             -10.65070000      2.15352000      3.30032000      0.01326880      0.01393380     -0.05142030       1
O             -12.10160000     32.22450000     47.97050000      0.01368620     -0.06245510      0.00324809       8
H             -11.70420000     30.23030000     48.13760000     -0.00460616      0.07986210     -0.00381740       1
H             -10.69070000     33.25190000     48.58940000     -0.00561052     -0.02024510     -0.00192187       1
O              15.00510000    -29.63310000    -16.24400000     -0.01092560      0.00380951      0.00352065       8
H              15.87510000    -31.28950000    -15.98490000     -0.00889369      0.02118860     -0.01459330       1
H              13.62530000    -29.70440000    -17.47610000      0.01805170     -0.01394550      0.00845545       1
O              27.65020000     15.92230000     34.17770000      0.02658200     -0.01550860     -0.00393141       8
H              29.32730000     16.59520000     33.72790000     -0.01153830      0.00443143      0.00169698       1
H              28.26580000     14.41280000     35.15800000     -0.01434670      0.01531660      0.00203550       1
O              -1.32004000      2.15468000     -2.76745000     -0.02017180     -0.12284100      0.04278780       8
H              -0.12247600      3.43822000     -2.81751000      0.04393070      0.02975790     -0.00272424       1
H              -0.60308400      0.40283100     -1.68351000     -0.02739080      0.08386720     -0.04077910       1
O             -25.39890000     23.61130000     29.52830000     -0.03881200     -0.01776970     -0.00261906       8
H             -24.79750000     22.77440000     27.98570000     -0.01375790      0.00950667      0.01083480       1
H             -27.38180000     23.35630000     29.56570000      0.05213440      0.00311794     -0.00403880       1
O             -29.86390000      9.68251000     20.74540000     -0.07776070     -0.01035710     -0.04527700       8
H             -31.94670000      9.80226000     19.96460000      0.07769900     -0.00811715      0.02394130       1
H             -29.70400000     11.19450000     21.70450000      0.00333654      0.01779050      0.01090450       1
O             -13.09650000     59.90670000    -18.79170000      0.08980910      0.05866400      0.11756200       8
H             -13.82640000     60.59820000    -17.16520000      0.01066050     -0.01880130     -0.03200540       1
H             -14.26320000     59.42460000    -19.83230000     -0.10590300     -0.04592430     -0.08053570       1
O              64.24600000     22.67470000     39.77930000     -0.02027140      0.03424450     -0.02548390       8
H              63.66120000     22.39500000     38.01470000     -0.00448134      0.00516852      0.01856250       1
H              64.92170000     21.13940000     40.25900000      0.02589700     -0.03812560      0.00636252       1
O              55.97120000    -23.59870000      4.44232000     -0.04347740     -0.00909712      0.09102420       8
H              54.38060000    -23.36850000      5.89921000      0.05579040     -0.00393571     -0.05760440       1
H              55.56890000    -22.71350000      2.96903000     -0.02028080      0.01605490     -0.03199880       1
O              32.47880000     18.26220000    -14.18490000      0.01533860      0.04543750      0.03489630       8
H              33.32330000     16.70150000    -14.41760000      0.01117710     -0.01887530      0.00083641       1
H              33.30350000     18.97000000    -12.47940000     -0.04292780     -0.02219540     -0.05219030       1
O              -9.81366000      7.39010000     61.58010000     -0.03777170     -0.01873020     -0.01312010       8
H             -10.93690000      6.02225000     60.88000000      0.02391320      0.02877770      0.01013710       1
H              -8.14928000      6.64913000     61.64200000      0.01490260      0.00130012     -0.00545221       1
O               6.04266000      1.63614000     -0.47118100     -0.00055862      0.16245500      0.08951130       8
H               5.93117000      0.13920100     -0.97800400     -0.01004610     -0.18454000     -0.06622510       1
H               6.57855000      2.73920000     -1.75421000      0.01091570      0.01482180     -0.01812740       1
O              42.61620000      5.07450000     23.82430000      0.01767860     -0.06253780      0.00642625       8
H              43.06030000      6.60053000     23.11110000      0.00096437      0.04805850     -0.02190290       1
H              43.82440000      3.89302000     22.97750000     -0.01378850      0.01464580      0.01837440       1
O              -1.43373000     59.43840000     27.67990000     -0.04475330      0.01098680      0.00576279       8
H              -1.89026000     57.70760000     28.08710000      0.01549880     -0.00082326     -0.00705625       1
H               0.18539200     59.96910000     27.17220000      0.02350030     -0.01605360     -0.00878799       1
O              10.00380000     37.69140000     10.32900000      0.01245390     -0.03592620      0.00688001       8
H               8.86980000     36.76190000     11.42040000     -0.01484930      0.01049450     -0.00028452       1
H              11.56060000     36.73410000     10.66200000      0.00176338      0.01727060     -0.01250480       1
O             -18.74650000     19.27270000     17.50600000     -0.06500980      0.06437510     -0.01134350       8
H             -20.18910000     20.19690000     16.46090000      0.05017450     -0.03701930      0.03677200       1
H             -18.96660000     20.13050000     19.34670000      0.02183450     -0.03033220     -0.03577610       1
O              31.13810000     34.01230000     49.61710000     -0.07523300      0.01210780      0.03068000       8
H              32.56770000     33.57650000     48.80780000      0.07315100     -0.02139930     -0.03424740       1
H              30.13560000     32.43430000     49.85830000      0.00491399      0.01288100      0.00681528       1
O              13.38920000     33.71630000     18.17760000      0.08628680      0.08192970     -0.05349390       8
H              14.07680000     33.13480000     16.50770000     -0.01695040      0.00278227      0.01880830       1
H              12.49930000     32.43310000     18.73060000     -0.06319620     -0.09441800      0.04127590       1
O              -0.44365400    -26.77750000     24.69850000     -0.12282200      0.09472110     -0.05062350       8
H              -1.53349000    -27.91760000     23.76680000     -0.02037310      0.02008060      0.00264937       1
H               0.65893100    -27.90400000     24.98050000      0.14472300     -0.10811300      0.04605210       1
O               3.09213000     13.55980000      0.44645700      0.04971730     -0.02283840      0.12268800       8
H               4.59200000     12.48110000      0.22574100      0.00304321      0.00214321      0.03905890       1
H               2.88264000     13.44750000     -1.15984000     -0.05424900      0.01424960     -0.15734000       1
O               4.90336000      1.94109000     16.68080000     -0.04902350     -0.12878600     -0.05685730       8
H               3.37092000      0.72761200     15.93330000      0.05620620      0.05386570      0.03721860       1
H               4.23107000      3.44742000     17.07620000     -0.04111070      0.07445570      0.02710950       1
O             -36.75310000     52.46330000    -29.25890000     -0.00471532     -0.02718140     -0.04993910       8
H             -37.25120000     51.30760000    -30.93620000      0.00759312      0.02346990      0.05888610       1
H             -35.65320000     51.35530000    -28.28500000     -0.01060700      0.00858201     -0.00177039       1
O               4.50262000     48.87890000    -15.41010000      0.02496030     -0.03260200      0.00911904       8
H               5.98739000     49.50370000    -14.46400000     -0.01679640      0.00436517      0.00185160       1
H               4.12390000     47.08670000    -14.80430000     -0.00525775      0.02502000     -0.01512830       1
O             -31.80140000     35.32190000      3.33317000     -0.07185530     -0.01223520      0.06223330       8
H             -33.56730000     35.92700000      4.08095000      0.05199080     -0.01148080     -0.03221910       1
H             -31.66370000     33.89900000      4.60715000      0.01549520      0.02228180     -0.03237650       1
O              23.01980000     33.41600000     12.16110000      0.03811770     -0.05900060      0.04702900       8
H              24.86400000     32.89610000     11.93770000     -0.03987170      0.00545256      0.00232774       1
H              22.77250000     34.69060000     11.03410000     -0.00591057      0.05165880     -0.04167990       1
O             -12.28480000    -20.62040000     10.27090000      0.01643120     -0.00676698     -0.03544620       8
H             -12.06530000    -20.61920000      8.38228000     -0.00027576      0.00735622      0.03145080       1
H             -11.77480000    -22.34380000     10.63540000     -0.00232271      0.00028339      0.00619787       1
O             -45.91120000      5.56955000     19.69910000      0.06456920     -0.02892220      0.03407130       8
H             -46.74970000      6.97654000     18.99620000     -0.00233129      0.02871700     -0.00203010       1
H             -44.04160000      5.84050000     20.57080000     -0.05998120      0.00528253     -0.04172460       1
O             -20.59310000    -16.56670000     34.59720000      0.02696350      0.06591120      0.05359090       8
H             -19.12680000    -17.43970000     35.16020000      0.01491910     -0.01745600      0.00596094       1
H             -21.34300000    -17.58450000     33.47210000     -0.04080420     -0.04906690     -0.06498720       1
O              18.10030000     14.50370000     31.42700000      0.09074270     -0.02787810     -0.03735900       8
H              20.22120000     14.15400000     31.38220000     -0.08284690      0.02227590      0.01298140       1
H              17.76800000     14.21270000     29.58410000     -0.00073863     -0.00199456      0.02956320       1
O             -23.93880000     -1.35343000     40.48280000     -0.01966970      0.03099440     -0.01514590       8
H             -24.37270000     -0.21578800     41.88130000      0.00460457     -0.00221706     -0.00769460       1
H             -24.95300000     -0.68586400     38.95680000      0.01742840     -0.01784060      0.02109670       1
O              43.09780000      3.69817000     33.03570000      0.01611590      0.02167120      0.04143110       8
H              43.13070000      4.51282000     34.82720000     -0.00897363     -0.02358420     -0.03545690       1
H              42.17890000      2.13964000     32.94420000     -0.00586738      0.00198046      0.00086402       1
O             -10.35700000    -31.34420000     -9.78941000      0.06128800      0.03081810      0.02074280       8
H              -8.35345000    -30.66280000     -9.56581000     -0.06065900     -0.02406800     -0.00459696       1
H             -10.05310000    -32.61010000    -11.02970000     -0.00089931     -0.01214500     -0.01299860       1
O              55.00990000    -20.00060000    -12.27810000      0.05692650      0.02063560      0.03728010       8
H              56.96150000    -19.56970000    -12.18690000     -0.05628930     -0.02244600     -0.02089800       1
H              54.79260000    -20.49590000    -10.49690000     -0.00610327     -0.00035079     -0.02080320       1
O              17.49850000     -1.05805000      5.89016000     -0.02229500     -0.02688200      0.01156270       8
H              16.12070000     -0.08654700      5.15313000      0.00350157     -0.00332882      0.00553427       1
H              16.66270000     -2.68965000      6.45594000      0.01964370      0.02774300     -0.00971335       1
O             -37.25140000     -5.86500000     45.90730000      0.05805700     -0.08620150      0.02198160       8
H             -36.46320000     -7.41347000     44.87950000     -0.03999670      0.04909940      0.00697270       1
H             -36.75050000     -6.77738000     47.58930000     -0.01526940      0.03491110     -0.02642600       1
O               5.53980000    -11.93910000    -11.18720000     -0.01548490     -0.03522940     -0.00711960       8
H               4.67953000    -12.07060000     -9.47738000      0.01871430      0.00278969     -0.02810730       1
H               5.18298000    -13.44530000    -12.31680000     -0.00317593      0.02819080      0.03212030       1
O              18.63460000     17.82610000     14.38850000     -0.00642181      0.00213622     -0.00769047       8
H              19.36140000     18.65310000     12.87040000      0.00275837     -0.01612460      0.03315930       1
H              19.76890000     17.31710000     15.80440000     -0.00380013      0.02133590     -0.02655240       1
O               9.55421000     19.91390000     -9.69775000      0.09424770     -0.03130560     -0.04536480       8
H              10.60030000     18.43090000     -9.17930000     -0.00464714      0.01985260     -0.00498844       1
H               8.30279000     20.01740000     -8.58045000     -0.08875540      0.00029352      0.06855130       1
O              25.46140000     52.18700000     30.41770000      0.18781300      0.02461590      0.05718240       8
H              23.99950000     51.52440000     30.32250000     -0.15287400     -0.06808370     -0.01548270       1
H              26.50500000     50.76940000     31.54630000     -0.03187230      0.04576000     -0.04305970       1
O              -4.43717000      7.26828000      5.33266000      0.00348553      0.00177687      0.09690190       8
H              -4.42205000      5.94783000      6.86760000     -0.00407191      0.03821960     -0.04311650       1
H              -4.35605000      6.20318000      3.99423000     -0.00109331     -0.04023690     -0.05947890       1
O              13.75220000    -25.38290000     20.36280000      0.03132750      0.02928130     -0.03849930       8
H              13.48500000    -27.04170000     20.89130000     -0.01938800     -0.03285270      0.00778751       1
H              14.67220000    -25.42530000     18.67750000     -0.02344180      0.00339477      0.02931600       1
O              -5.39718000     19.10940000     46.54160000     -0.04071670      0.03507770     -0.03837280       8
H              -4.07783000     19.06640000     45.03590000     -0.04660750      0.00740414      0.02262980       1
H              -7.16595000     20.15500000     46.09360000      0.08974160     -0.04418930      0.01407170       1
O              35.91330000     40.45830000      2.99908000     -0.03122170      0.05991680     -0.01288310       8
H              34.35870000     41.62230000      3.28448000      0.03995790     -0.01459330     -0.00293627       1
H              35.16410000     39.02220000      3.69717000     -0.00036930     -0.04069730      0.01182460       1
O              21.71990000     18.75660000    -29.45500000     -0.00353319      0.00780270     -0.00662324       8
H              22.61170000     17.12640000    -29.33600000      0.01158520      0.01091140      0.00403102       1
H              22.63770000     20.22450000    -30.28700000     -0.00266614     -0.03064390      0.00882627       1
O             -20.15820000     42.26770000      2.21135000      0.04225600      0.11102900      0.02344420       8
H             -20.49890000     40.64470000      2.11881000     -0.02618780     -0.11327600     -0.01679310       1
H             -18.54130000     42.33940000      3.20779000     -0.02602850      0.00385826     -0.00888865       1
O               8.06611000    -28.85520000     28.69140000      0.01496040     -0.11972100      0.07806410       8
H               8.33802000    -28.53880000     30.55400000     -0.00434646     -0.02591470     -0.01577190       1
H               7.94655000    -27.29030000     28.26550000     -0.00932504      0.15263400     -0.05784010       1
O               4.15240000     30.01260000      2.19067000     -0.00533775     -0.03960960     -0.04344520       8
H               4.10577000     28.79700000      0.68856600      0.00483684      0.02992010      0.03916540       1
H               3.43790000     28.94520000      3.50286000     -0.00374347      0.01007470      0.00813934       1
O              -9.16172000    -11.50650000     11.10610000     -0.01009190      0.06629220     -0.02518350       8
H              -8.99049000    -13.02460000     11.78330000     -0.01165890     -0.10132400      0.06152160       1
H              -7.67492000    -11.65960000     10.14890000      0.02335180      0.02662430     -0.03484180       1
O              -4.99417000      6.26646000     13.69260000     -0.00909022     -0.02772140      0.04462010       8
H              -3.73320000      7.54079000     13.34280000      0.00588451     -0.00099106      0.00457601       1
H              -5.05534000      5.45178000     15.67060000      0.01477020      0.01981950     -0.05814640       1
O              23.86560000     -9.70745000     -3.92916000      0.01279880      0.04232990      0.01887440       8
H              23.36580000    -11.09210000     -4.84760000     -0.00474144     -0.04865270     -0.03932800       1
H              22.74630000     -9.87277000     -2.51988000     -0.01070480      0.00552015      0.01549970       1
O              22.67510000      9.53028000     41.72740000     -0.05804320      0.01399060      0.11089300       8
H              20.75450000      9.59762000     42.65830000      0.06389650     -0.00591774     -0.02756060       1
H              22.35280000      9.24393000     40.07980000     -0.01040200     -0.00695558     -0.07441810       1
O              14.20860000     26.39070000     47.83410000     -0.04822450     -0.04135250     -0.01455030       8
H              15.74690000     27.19040000     47.58640000      0.04120170      0.02204290     -0.00571760       1
H              14.08950000     24.89070000     46.63950000      0.00402805      0.02686060      0.02216050       1
O             -12.99850000     14.20140000     18.17460000      0.02641500      0.05106810     -0.07062140       8
H             -11.95520000     14.77740000     16.46660000     -0.03465800     -0.00766878      0.06156410       1
H             -12.07730000     12.71800000     18.47580000      0.01010600     -0.03412320      0.01002870       1
