192
TotEnergy=-1103.20143000 cutoff=-1.00000000 nneightol=1.20000000 pbc="T T T" Lattice="24.87805000       0.00000000       0.00000000      -0.00000100      24.87805000       0.00000000      -0.00000100      -0.00000100      24.87805000" Properties=species:S:1:pos:R:3:force:R:3:Z:I:1
O               6.83085000      4.93455000     20.52430000     -0.00245331     -0.01365160     -0.00501892       8
H               6.20831000      4.49339000     22.18030000      0.00386555      0.00379829     -0.00407615       1
H               5.59956000      6.02870000     19.71090000      0.00818444     -0.00100709      0.00753272       1
O              16.73430000     13.11300000     12.03530000      0.01643950     -0.01589760      0.01303060       8
H              15.41730000     13.80880000     11.04110000     -0.01058440      0.00596797     -0.01193630       1
H              15.79730000     12.39840000     13.43330000      0.00826421      0.00507497     -0.00487422       1
O              23.13050000     13.02240000     13.45750000     -0.00637254     -0.00705453      0.00422227       8
H              22.56080000     12.90590000     11.72920000      0.00809218      0.00730801      0.00123115       1
H              21.87550000     14.06720000     14.24640000     -0.00035064      0.00200188     -0.00067046       1
O              11.65790000     18.70340000     16.51260000      0.03028750      0.00128122      0.01410890       8
H              12.93690000     19.59030000     15.55770000     -0.00627895      0.00368652      0.00275756       1
H              10.16600000     18.81890000     15.56360000     -0.01912750     -0.00428295     -0.01660940       1
O               7.32659000     17.40530000     12.62940000     -0.00138317      0.00123340      0.00270462       8
H               6.08826000     16.11180000     12.33530000      0.00032115     -0.00041718      0.00718688       1
H               6.85101000     18.70070000     11.43210000      0.00223041     -0.00615492     -0.00506479       1
O              17.73450000      6.17836000     15.29080000     -0.00207495      0.00018354     -0.01911810       8
H              18.10780000      4.79105000     14.16150000      0.00125435      0.00408459      0.00379350       1
H              17.59800000      5.48145000     16.93560000      0.00012960     -0.00535850      0.01077790       1
O              12.00800000     13.89410000     10.42880000     -0.00471384      0.00028855      0.00131721       8
H              12.23650000     15.66290000     10.77250000     -0.00489107      0.00376942     -0.01101910       1
H              10.53090000     13.42520000     11.35680000      0.00243199      0.00581675      0.00550042       1
O               3.47890000     13.68030000     15.58320000     -0.00574166      0.00624164     -0.00169089       8
H               1.86679000     13.57190000     14.73050000      0.00276895     -0.00303541     -0.00230207       1
H               4.46287000     12.24170000     15.08950000      0.00036893      0.00122964      0.00008316       1
O              20.10250000     15.87660000     22.41290000      0.02891670     -0.02991040     -0.10354300       8
H              20.10720000     17.63280000     22.72440000      0.00570678      0.01838980      0.00584289       1
H              20.75800000     15.90860000     20.33960000     -0.03456820     -0.00158029      0.09654030       1
O               4.88434000     19.88230000      3.00894000     -0.00010983     -0.00301090     -0.00284108       8
H               4.94918000     21.56020000      3.77784000      0.00289341     -0.00172727     -0.00801698       1
H               3.11952000     19.48260000      2.92829000     -0.00010428     -0.00121388      0.00129825       1
O              20.22410000      3.55322000     10.00640000      0.00023928     -0.00174560     -0.00194023       8
H              20.01620000      1.80263000      9.46269000     -0.00513742      0.00049265      0.00079436       1
H              20.35370000      4.53159000      8.48844000      0.00072619     -0.00601138     -0.00012638       1
O              15.47300000     11.32000000     21.87840000      0.00504658      0.00110417     -0.00654239       8
H              17.08350000     10.48440000     22.04400000      0.00265932     -0.00204551     -0.00625108       1
H              14.28830000     10.06040000     21.29740000     -0.00000487      0.00311507      0.00834367       1
O              15.24130000     15.06970000      0.79777400      0.01805490      0.01582030      0.00356436       8
H              14.02150000     16.21770000     -0.08544600      0.01367210      0.00194225      0.02096770       1
H              16.47010000     14.68770000     -0.49611700      0.00963652     -0.02021940     -0.02029850       1
O               8.62432000     21.59120000     23.88260000     -0.00256299      0.00195309     -0.00026297       8
H               7.22714000     20.70040000     24.64720000     -0.00058451      0.00617940      0.00593348       1
H               9.97367000     20.36740000     23.81790000     -0.00366029      0.00010511      0.00115222       1
O              10.98640000     11.87130000      4.11139000      0.00493796      0.00110934     -0.00222025       8
H              11.96020000     13.40640000      4.16431000     -0.00436658      0.00010149      0.00781079       1
H               9.28745000     12.26300000      3.52299000      0.00020480     -0.00168055      0.00583056       1
O              10.93230000      9.61605000     24.00220000     -0.00923493      0.01734510     -0.00307523       8
H              11.83260000     10.18820000     25.47090000     -0.00148589     -0.00215007      0.00268720       1
H               9.80541000     11.07280000     23.65800000      0.01357680     -0.02130060      0.00074779       1
O              24.03140000      8.42184000     16.11710000      0.00952238     -0.00034047     -0.00205619       8
H              23.65990000      9.83989000     15.01190000      0.00071572      0.00048185      0.00192640       1
H              24.13470000      6.95065000     15.04450000     -0.00545629     -0.00086405      0.00079029       1
O              18.79250000      9.91732000      7.90219000     -0.00330134      0.00283471     -0.00685289       8
H              17.34270000      9.33519000      8.91021000     -0.00007561      0.01070030     -0.00233673       1
H              18.61180000      9.20638000      6.20855000     -0.00607531     -0.00184165     -0.00376051       1
O               3.04311000     22.76820000      9.67734000      0.00074218      0.00062738     -0.00372309       8
H               3.82091000     24.40350000      9.66769000     -0.00151471      0.00221659     -0.00462149       1
H               3.97317000     21.84680000      8.41555000      0.00413306     -0.00289877      0.00639110       1
O              24.40390000     16.39320000      3.16244000      0.01254030      0.01081370     -0.00282552       8
H              22.78530000     15.54780000      3.32634000     -0.01288810     -0.00961041      0.00381947       1
H              25.21420000     15.55250000      1.74879000     -0.00477943      0.00008107      0.00505825       1
O              24.15700000      8.17810000      9.27316000     -0.00144361      0.00150801      0.00714666       8
H              22.97460000      9.18471000      8.34052000      0.00109360     -0.00628524      0.00542753       1
H              23.21990000      6.97326000     10.25170000      0.00091255      0.00112478      0.00025237       1
O              15.60690000      5.15941000      1.07956000      0.00049984      0.00133523      0.00128842       8
H              17.32430000      4.87415000      0.50349400      0.00018225      0.00119141      0.00402609       1
H              14.97250000      6.53635000      0.08374300     -0.00233535     -0.00351295     -0.00286592       1
O               5.88068000     12.01250000      3.10547000      0.00003118      0.00436380     -0.00356178       8
H               5.11551000     13.23610000      2.01702000     -0.00285741     -0.00194945     -0.00264734       1
H               4.64575000     11.72010000      4.42449000      0.00347473      0.00117644     -0.00116759       1
O              10.87940000      1.29787000     12.00190000     -0.00150910     -0.01371060     -0.00009799       8
H              10.42380000      3.02169000     12.11590000     -0.00094940      0.00991607      0.00454411       1
H              12.27520000      0.93700400     13.14290000     -0.00056451      0.00194142     -0.00992513       1
O               7.75057000     12.93310000     21.92090000     -0.00162311      0.00457311     -0.00437848       8
H               6.67009000     11.80450000     20.98710000      0.00264008      0.00397277     -0.00138334       1
H               6.74427000     14.40490000     22.19420000     -0.00674266      0.00008120      0.00096733       1
O              20.25820000      8.55382000     20.40890000      0.00540710     -0.00308251      0.07561580       8
H              20.20330000      8.60834000     18.70770000      0.00034175      0.00425912     -0.07361110       1
H              21.43190000      7.18973000     20.75260000     -0.01097380      0.00727857      0.00136926       1
O              18.91030000     20.57820000     22.58800000     -0.00191564      0.00787260     -0.01532880       8
H              17.18530000     20.37100000     22.06550000     -0.01347160      0.00933805      0.01239960       1
H              19.43220000     22.32840000     22.61250000     -0.00571762      0.00123511      0.00735127       1
O               1.68745000     14.23450000     23.79830000      0.00199849      0.00273989     -0.00268502       8
H               0.16184900     13.72590000     22.94330000      0.00093257     -0.00116692      0.00456302       1
H               2.01477000     15.90230000     23.15100000     -0.00092120     -0.00021888     -0.00684583       1
O               6.89844000     19.27590000      7.75933000      0.00184926      0.00337316     -0.00257274       8
H               6.30279000     18.47300000      6.23750000     -0.00093539      0.00187512     -0.00003762       1
H               8.45173000     20.08220000      7.24971000      0.00208409     -0.00355483      0.00040861       1
O              23.84920000     15.11760000      8.52423000     -0.00722190     -0.04429510      0.00354723       8
H              24.42570000     16.75670000      8.30067000      0.00949008      0.03261050     -0.00410229       1
H              24.51760000     14.15730000      7.12603000     -0.00453051      0.01126480      0.00141747       1
O              11.78170000     18.09300000     22.15830000      0.00184629     -0.00600691     -0.00132852       8
H              11.57230000     19.19590000     20.70680000      0.00708431     -0.00613622     -0.00196818       1
H              10.71600000     16.68050000     21.73160000      0.00244018     -0.00305713     -0.00208538       1
O               8.31176000      9.72773000      9.63088000     -0.00051408     -0.00148774     -0.00538460       8
H               8.98747000     11.09200000      8.63004000      0.00384217     -0.00150955      0.00280225       1
H               8.39944000     10.18640000     11.39760000     -0.00338905     -0.00640525     -0.00408408       1
O               3.79427000      3.26477000      8.97138000      0.00067813      0.00042304      0.00264184       8
H               4.26888000      3.17518000     10.72290000     -0.00020381      0.00500739      0.00185335       1
H               5.01605000      4.36512000      8.19973000      0.00133098     -0.00387637     -0.00098951       1
O              16.64760000      0.53938000     18.64850000     -0.00049534     -0.00285241     -0.00362657       8
H              15.32200000      1.77059000     19.02500000     -0.00106376     -0.00476647      0.00088156       1
H              18.18130000      1.54336000     18.54390000     -0.00170770     -0.00131529      0.00548865       1
O              11.17200000      0.12423600      3.16262000      0.00134430      0.00078246     -0.00003638       8
H              10.35800000     -0.60498500      1.70195000      0.00001260      0.00284268      0.00086826       1
H              12.75790000      0.84065800      2.64331000     -0.00513367      0.00048259     -0.00398148       1
O               8.45512000      5.19410000      6.17846000     -0.01183670      0.01165110      0.00564800       8
H               9.98854000      4.29446000      6.38857000      0.01153710     -0.00678814      0.00332378       1
H               8.51265000      6.58927000      7.35888000      0.00668779     -0.00232513     -0.00007439       1
O              20.90630000      4.50606000      0.82308700      0.00191461      0.00321526      0.00118974       8
H              21.63110000      4.97287000      2.41871000      0.00165238      0.00175505     -0.00289109       1
H              21.88930000      3.08672000      0.25073100     -0.00453133     -0.00325158      0.00464711       1
O               2.15854000      6.24297000     24.05500000     -0.00622009      0.02995080     -0.00610302       8
H               1.03947000      7.02069000     25.27670000      0.00507930     -0.00106328     -0.00208880       1
H               2.15170000      4.51091000     24.40950000      0.00019960     -0.02278610      0.00724847       1
O              18.79740000     23.06970000      8.75414000      0.00213980      0.01264380     -0.00238229       8
H              17.74760000     23.08240000      7.27468000     -0.00070954     -0.00631844      0.00308204       1
H              20.31480000     22.16220000      8.32781000     -0.00345745     -0.00143851      0.00471429       1
O               1.64464000     17.68120000     19.26470000      0.00197913     -0.00167601      0.00119518       8
H               0.81868800     16.15040000     18.75490000      0.00249189     -0.00010052     -0.00209409       1
H               2.90430000     17.89950000     17.97350000      0.00050268     -0.00087309      0.00207444       1
O               1.13551000      1.63282000     20.66710000     -0.07707400     -0.12583800      0.04796190       8
H               1.73868000      3.05294000     20.17950000      0.05934140      0.12813400     -0.04080280       1
H               2.40595000      0.38511100     20.92630000      0.01419760     -0.00558385     -0.00296150       1
O              12.89510000      4.10045000     19.40420000     -0.00038198     -0.00351617     -0.00355988       8
H              11.22420000      3.62641000     19.95250000      0.00076007      0.00573850      0.00066415       1
H              12.65610000      5.09371000     17.90130000     -0.00337817      0.00348465      0.00286204       1
O              14.46700000      7.34635000      5.88320000      0.00507441     -0.00134744      0.00042320       8
H              14.97690000      6.34357000      4.42843000     -0.00293710      0.00118114     -0.00155922       1
H              13.12110000      8.41395000      5.27392000      0.00149616      0.00238327      0.00174862       1
O              14.94600000     17.60220000      6.80404000      0.00340600     -0.00896124     -0.01748930       8
H              16.47870000     15.69650000      2.16704000     -0.03548030      0.00713354     -0.00269022       1
H              14.44040000     19.26050000      6.23831000      0.00001751     -0.00658535      0.00707878       1
O              24.18360000      9.02337000      3.97415000     -0.00732598     -0.00359261     -0.00272408       8
H              22.61310000      9.85987000      4.37416000      0.00436749      0.01165370     -0.01299160       1
H              25.48150000      9.85479000      4.94644000      0.00127161     -0.00659514     -0.00149113       1
O               5.17621000     23.25100000     19.78850000      0.00478786      0.00893073     -0.00521576       8
H               5.53110000     24.77010000     18.83740000      0.00406473     -0.00941146      0.00323715       1
H               6.80734000     22.76770000     20.45140000     -0.00430703      0.00068143      0.00722623       1
O              20.76980000      3.48799000     19.18140000      0.00195084     -0.00452576     -0.00332610       8
H              21.57930000      3.63963000     17.54600000      0.00510649     -0.00142042     -0.00191395       1
H              21.61480000      2.07965000     19.94240000      0.00655556      0.00215982     -0.00111269       1
O              22.52150000     24.15180000     24.83040000     -0.00050877      0.00450177     -0.00746531       8
H              23.18880000     24.62840000     23.21780000      0.00969326     -0.00060695     -0.00296942       1
H              23.97790000     23.75330000     25.85830000     -0.00722808      0.00060045      0.00215981       1
O               7.82111000      9.98608000     15.34270000     -0.02447990      0.00472536     -0.00357650       8
H               6.90014000      9.44773000     16.83020000      0.00309201      0.00169918     -0.00560927       1
H               9.54849000      9.84283000     15.74220000      0.02056340     -0.00674235      0.00289401       1
O              15.14210000     23.92690000     13.69850000     -0.02563830      0.02695630      0.03556000       8
H              15.94210000     22.79530000     12.64710000      0.02773890     -0.02404520     -0.02994570       1
H              16.20120000     24.38660000     15.12020000     -0.00157307     -0.00765643     -0.00126991       1
O              20.13810000     13.21970000      3.82069000     -0.00919401     -0.01089370      0.00849761       8
H              18.74810000     11.76200000      7.47784000      0.00450910      0.00361542      0.00166633       1
H              18.63310000     14.09160000      4.33245000      0.00159610      0.00529446      0.00867674       1
O               4.16640000      8.78892000     18.84620000     -0.00723801     -0.00363746      0.00400354       8
H               3.66880000      8.77952000     20.59780000     -0.00719464      0.00022198     -0.00008153       1
H               2.63577000      8.54766000     17.86250000     -0.00661160      0.00782962      0.00093918       1
O               3.45532000     10.36660000      7.25365000      0.00226256      0.00032951      0.00236167       8
H               5.04246000      9.51583000      7.51432000     -0.00162307      0.00288014      0.00439377       1
H               2.46030000      9.94543000      8.72248000     -0.00145856     -0.00210513     -0.00342916       1
O               7.78687000      5.52577000      1.10315000     -0.00340649      0.00078312     -0.00397829       8
H               7.49404000      6.98473000      0.07077200      0.00568031      0.00029682      0.00204358       1
H               8.69379000      6.18020000      2.53476000     -0.00550489     -0.00496399     -0.00084045       1
O              12.88150000      8.52697000     15.18150000     -0.00586942     -0.02668440     -0.00693126       8
H              14.29770000      7.51386000     14.60400000     -0.00076461      0.00816015      0.00446971       1
H              13.50830000     10.15630000     15.55740000      0.00969838      0.01793080      0.00746790       1
O              23.30150000     21.27990000     11.31170000     -0.00299344     -0.00870984     -0.00243383       8
H              22.49000000     20.12580000     12.47520000     -0.00328782      0.00641826      0.00411585       1
H              24.69800000     21.88400000     12.29450000      0.00115182      0.00014337     -0.00726471       1
O              24.57110000     22.17790000      4.34508000      0.00191297     -0.00355264     -0.00494737       8
H              24.19020000     20.59490000      3.51176000     -0.00315651     -0.00291775      0.00781872       1
H              24.67570000     21.78900000      6.11595000      0.00136408      0.00253777      0.00286748       1
O              23.56350000      3.21580000     14.37660000      0.00106527      0.00077738      0.00004478       8
H              25.30360000      2.67736000     14.51390000      0.00077996     -0.00127675     -0.00054820       1
H              22.95700000      2.56001000     12.78830000     -0.00152075      0.00327900      0.00245615       1
O              22.21260000     20.08720000     16.24150000     -0.01380260     -0.00206314      0.01029110       8
H              18.14540000     20.89450000     19.51590000      0.02846840     -0.00252539     -0.01128390       1
H              23.77130000     19.84160000     17.16670000     -0.00844078      0.00148741      0.00331607       1
O              13.94630000     13.44550000     16.89130000      0.00036156     -0.00005197     -0.00384839       8
H              14.84590000     13.39630000     18.47340000     -0.00025287      0.00023508      0.00070677       1
H              13.91450000     15.16140000     16.27580000     -0.00318228     -0.00470545      0.00626675       1
O              12.00740000     22.38640000      7.51573000     -0.00690418     -0.00553808     -0.00097129       8
H              11.32670000     23.45680000      6.19784000      0.00151803      0.00119059      0.00014753       1
H              10.94280000     22.56440000      8.96595000      0.00530993      0.00922290      0.00088121       1
O               4.07557000      2.46486000     14.80870000     -0.00853570      0.00407041      0.00205799       8
H               4.30185000      0.68121600     15.08830000      0.00781390     -0.00099354     -0.00209657       1
H               4.40629000      3.34210000     16.36870000      0.00453946     -0.00522294     -0.00508680       1
O               5.14848000      0.13909100      3.94370000     -0.00223442      0.00000958      0.00139191       8
H               3.42290000      0.37277700      4.44400000     -0.00081532      0.00178379      0.00313464       1
H               6.07005000      1.46708000      4.78318000      0.00032210     -0.00191077     -0.00402116       1
O               7.15601000     22.48890000     14.13790000     -0.01509100      0.00021618      0.02086160       8
H               7.10615000     20.81730000     14.86420000     -0.00190095      0.00700464     -0.00941911       1
H               8.54806000     22.60770000     13.02630000      0.01115890      0.00483230     -0.00575993       1
