192
Lattice="24.84789 0.0 0.0 0.0 24.84789 0.0 0.0 0.0 24.84789" Properties=species:S:1:pos:R:3:force:R:3 TotEnergy=-1101.89639 cutoff=-1.0 nneightol=1.2 pbc="T T T"
O       17.88650000       1.84642000      10.46430000       0.05685430       0.01227030       0.00547303
H       16.39780000       1.57281000       9.61838000      -0.04220590      -0.00907140      -0.00968526
H       17.62480000       2.37279000      12.17090000      -0.00530991      -0.00170522      -0.00264119
O        0.46602600       4.97369000       1.56585000      -0.02756410       0.00813243      -0.03519590
H        1.25826000       3.40297000       1.63955000       0.01663590      -0.03411740      -0.00137686
H        1.04329000       5.76296000       2.99916000       0.01633970       0.02550030       0.03890130
O       20.94510000      23.62360000      20.78330000       0.00137173      -0.03638630      -0.02628350
H       19.67580000      24.81376800      20.78620000      -0.03010400       0.03573890       0.00755764
H       21.96990000      23.91280000      22.17440000       0.02873960       0.00657155       0.02477250
O       14.42320000      22.49970000       0.10457800       0.01203880      -0.01125280       0.06564130
H       13.80310000      21.15590000       1.51445000       0.00960816       0.04816020      -0.04785890
H       15.50530000      23.81810000       1.14175000      -0.03098770      -0.03784330      -0.03162830
O       20.94280000       5.91832000       5.63651000      -0.21232500       0.10181600       0.21263000
H       20.25910000       4.57480000       7.26730000       0.02889950       0.07144140      -0.07385990
H       21.88360000       4.95381000       4.93448000       0.17742700      -0.17716700      -0.13766800
O        1.57853000      23.66420000      22.79610000      -0.01819870       0.00345249      -0.00908299
H        1.63279000       0.43847500      21.96140000       0.00788113       0.00387483       0.00407298
H        2.04598000      23.92170000      24.51450000       0.00634465       0.00413160       0.00721552
O       21.73360000      16.41130000      19.14510000      -0.07473590       0.07731030       0.02536780
H       21.64420000      19.26420000      20.19030000       0.00858901      -0.09079940      -0.01235480
H       19.77140000      16.19850000      19.34350000       0.06213220       0.00710327      -0.00617096
O       17.21350000       8.12757000       1.18429000      -0.06940790       0.02839840       0.00464982
H       18.58780000       9.17774000       1.15628000       0.04559240       0.03367630      -0.00281655
H       17.83720000       6.53476000       0.90920600       0.02681510      -0.05693100      -0.00896714
O        3.80066000       8.18422000      13.00440000       0.01915800      -0.02777520      -0.01090670
H        2.89827000       9.23982000      14.04210000      -0.03075680       0.02051250       0.05287250
H        3.78119000       9.35620000      11.68900000       0.00877372       0.00804981      -0.04122760
O       18.32130000       0.05200300       3.01742000      -0.10433800       0.20114500      -0.03826400
H       17.70610000       0.49700700       4.65974000      -0.00583457       0.01603860       0.00072720
H       18.98560000      23.52820000       3.28161000       0.11392600      -0.22179600       0.03721650
O        2.55535000      17.85710000      15.02530000       0.01484510       0.01005170       0.02839690
H        4.27141000      17.88360000      14.38820000      -0.00728052       0.00695697      -0.00077971
H        2.72959000      18.84940000      16.64530000      -0.01248460      -0.02388950      -0.02767880
O       11.76310000       8.00681000      12.13000000       0.00183780       0.07460930       0.00112519
H       13.16150000       7.37033000      12.94970000       0.03071420      -0.01592120       0.02118000
H       10.94210000       6.71880000      11.36880000      -0.03359100      -0.05405320      -0.02244510
O       10.69180000      23.72410000       7.52082000       0.04670110      -0.00645884       0.06305990
H       10.68350000       0.29826600       6.44631000       0.00718669       0.01669630      -0.00624990
H       12.02460000      24.09000000       9.19803000      -0.04747090      -0.01403910      -0.05235280
O        8.73554000       6.29834000      19.88440000      -0.00053288      -0.01703310      -0.06792410
H        8.70554000       5.94863000      17.78390000      -0.00899068       0.01182550       0.07530460
H        7.08937000       5.65524000      20.41410000       0.01004790       0.00670525      -0.01035320
O       11.36990000      19.75950000       4.12473000      -0.06135110      -0.02527800      -0.02906770
H       11.42710000      21.27980000       5.05465000       0.00403087       0.02213980       0.02114620
H        9.36396000      19.55900000       3.85614000       0.06267430      -0.00043080       0.00383712
O       16.70100000       3.91220000      17.91820000      -0.01952710       0.00640044       0.02595160
H       17.85610000       3.48420000      16.66000000       0.01867760      -0.00459708      -0.02263380
H       16.29240000       5.66906000      17.67990000       0.00130154      -0.00116123       0.00099358
O       20.50240000      17.77980000      11.10600000      -0.00326825      -0.00378305      -0.01863730
H       21.06730000      19.48970000      10.98880000       0.00404217       0.00075143       0.00338056
H       20.38130000      17.29590000      12.82170000       0.00088185       0.00281780       0.01346880
O        0.19579800      12.90600000      13.22970000      -0.04093960      -0.11569900      -0.10575300
H        0.04891800      14.07660000      14.34940000      -0.00047122       0.11208800       0.10441100
H       23.20740000      12.47270000      12.95440000       0.04683710       0.00669493       0.00550847
O       20.37680000      15.21320000       5.53980000      -0.07903840      -0.03444410      -0.07468070
H       20.04800000      15.04520000       7.28602000      -0.01252490       0.00177739       0.01913800
H       18.43550000      14.43910000       4.42530000       0.09183560       0.03652690       0.06048850
O        8.09688000      22.65430000      20.23790000       0.02413060       0.03651030       0.10199600
H       12.65060000      23.08240000      21.62000000      -0.01194870       0.00173089       0.00745316
H        7.11899000      21.59750000      21.70190000       0.03200700       0.04863020      -0.04916500
O       10.79890000      15.08530000      16.17220000      -0.11480100       0.08890080      -0.00827815
H       10.94880000      13.35220000      15.78840000      -0.00345561      -0.03688850      -0.00274150
H        8.63570000      15.91230000      14.89860000       0.08832430      -0.02953770       0.03921720
O        5.80507000      14.50000000       7.72383000       0.04125590      -0.02117860       0.00116101
H        7.47756000      13.77180000       8.25127000      -0.02355570       0.01097590      -0.01273360
H        5.40767000      15.36100000       9.23861000      -0.01538260       0.01013920       0.00976096
O       13.92100000       2.94915000       5.39924000       0.00640798      -0.01494900      -0.00094511
H       13.53850000       4.20326000       4.19043000      -0.00338611       0.01149130      -0.02406250
H       13.41440000       3.82704000       6.85601000      -0.00240536       0.00722481       0.02419800
O       23.94680000       6.95779000      19.11540000       0.07979230       0.07101380      -0.02376000
H       22.49360000       6.54357000      19.80880000      -0.09832370      -0.03951120       0.04593010
H       24.05880000       8.78488000      19.77320000       0.01293350      -0.02324650      -0.01816290
O       14.74390000      10.63670000      15.99500000      -0.00941588      -0.00718158       0.01237310
H       15.10740000      11.52600000      14.53470000      -0.00044570       0.01355350      -0.04835580
H       15.96700000      11.46110000      16.99970000       0.00874573      -0.00089845       0.02894870
O        2.97812000       4.07864000      20.65530000      -0.01046390       0.06298510       0.08369890
H        1.17832000       5.34714000      20.43790000       0.07357780      -0.04043610       0.00731449
H        4.05057000       4.79840000      22.60820000      -0.06066300      -0.02566450      -0.08950130
O       24.23090000      12.16660000      20.70010000       0.05174530       0.02076110      -0.00044376
H       22.78920000      13.15200000      20.20960000       0.00416347       0.01738510      -0.00606707
H        0.93682000      13.43320000      20.58700000      -0.05496080      -0.04464980       0.00741723
O       20.20830000       5.82667000      14.29350000      -0.05857260      -0.13172600      -0.08372590
H       21.07970000       5.72576000      15.67490000       0.07732060      -0.02809890       0.11380400
H       20.19920000       7.43404000      14.17310000      -0.01355370       0.16256000      -0.03276770
O       20.54310000      23.82350000      15.73230000      -0.03543720      -0.04168670      -0.11824500
H       19.38890000      22.60750000      14.26720000       0.05148340       0.05978380       0.07896020
H       19.86870000      23.56150000      17.31750000      -0.01650020      -0.01629040       0.03070710
O        5.36962000       8.28333000      24.30730000      -0.00079898      -0.00935851      -0.01293130
H        6.84010000       9.24250000      23.99110800       0.02253820      -0.00449956      -0.00328931
H        4.65243000       9.20152000       0.80201300      -0.02221190       0.01006370       0.02338420
O       12.21920000       1.20365000      17.14370000      -0.18320800      -0.00605434      -0.03516350
H       10.62020000       2.65811000      16.91720000       0.08162600      -0.06860780       0.01390230
H       13.65460000       1.95630000      17.47240000       0.09998820       0.06765720       0.02384230
O        7.57598000       8.44959000       6.19057000       0.03365200      -0.05004650       0.02306530
H        6.73098000       9.86643000       5.75344000      -0.03438070       0.05512950      -0.01960640
H        7.61241000       8.50267000       8.00074000      -0.00058823      -0.00396388      -0.00008557
O       13.11050000      14.54340000       4.69608000       0.02821030      -0.22743300      -0.06117490
H       12.98060000      16.02510000       5.07801000      -0.01838570       0.25228200       0.08261840
H       12.89040000      14.75670000       2.91309000      -0.00648363      -0.02572710      -0.01214080
O        7.23197000      20.27740000      12.94850000       0.00429975       0.00443665       0.06407390
H        6.67998000      21.81800000      14.23850000       0.01351230      -0.01498850      -0.02215400
H        6.39732000      20.76910000      11.48890000      -0.01296590       0.01284540      -0.03635660
O       11.65960000      12.44830000       0.43579300       0.07760880      -0.04457540      -0.03944300
H       14.11970000      11.23030000      24.15700000      -0.08665720       0.04009480       0.03082220
H       11.03280000      13.24460000      23.76760000       0.00449600      -0.00370326      -0.00076722
O       16.55730000       9.87115000       6.12984000      -0.00229528       0.00849327       0.01456760
H       17.32220000       9.02559000       4.75052000       0.01022690      -0.01902410      -0.00723832
H       15.36590000      10.87340000       5.23477000      -0.01259280       0.01186990       0.00289936
O        2.98167000      12.00430000       2.80095000      -0.05513660       0.00067016       0.03864840
H        3.87074000      12.02600000       4.39812000      -0.00268239       0.00586357      -0.00630016
H        1.07940000      12.19750000       3.55860000       0.06348070      -0.01227590      -0.02540930
O       13.61850000      23.79960000      11.97050000       0.05008970      -0.14287600      -0.10419500
H       12.60430000      24.42356500      13.13690000      -0.07273120       0.03055240       0.08799210
H       13.22880000      21.19380000      11.95260000       0.01513230       0.12047100       0.01333540
O       19.19000000      12.22750000      11.20880000      -0.00818324      -0.00258749       0.00768510
H       18.32600000      11.51080000       9.80838000      -0.02376580      -0.00570400      -0.01113380
H       20.81350000      11.80580000      10.62720000       0.02753440      -0.00011342      -0.00267487
O       23.55470000      10.47800000       5.33329000      -0.00157729       0.03606270       0.02409290
H       21.80620000      10.94860000       5.31468000      -0.00299192       0.01544790       0.00953940
H       23.44640000       9.26110000       4.10628000       0.00686095      -0.04317930      -0.03262210
O       15.09500000      19.02710000      15.02350000      -0.01474400       0.04118150       0.07177370
H       14.31750000      18.21320000      13.67140000      -0.02559490      -0.02008990      -0.01050490
H       13.88510000      19.59980000      16.56100000       0.04450110      -0.02712250      -0.06989520
O       22.21930000      21.37220000       6.03985000      -0.06479960      -0.17929100      -0.12333500
H       23.15940000      22.20500000       7.03087000       0.10662300       0.09176060       0.11247100
H       23.13410000      19.43330000       5.90455000      -0.04524660       0.09178330       0.00874934
O        3.46564000       0.29196700       2.88953000      -0.03764610       0.01153990      -0.03791670
H        5.18596000       0.53356200       2.72746000       0.03887090      -0.00028058      -0.00358457
H        3.10625000      24.59990000       4.50547000      -0.00593032      -0.01258030       0.04074930
O        6.30979000      24.45400000      15.46530000      -0.00435365      -0.00245453       0.00267761
H        9.16939000      24.55700000      21.50360000      -0.04645730      -0.08799620      -0.06109660
H        4.63336000       0.16571800      15.95650000       0.00407362      -0.00441073      -0.00440428
O       20.33400000       4.01084000       0.03641000      -0.02117330      -0.08786890       0.02877150
H       20.15900000       1.96899000       1.09539000       0.00621840       0.09711320      -0.03794640
H       22.02880000       4.62792000       0.23912000       0.00734181      -0.00709923       0.00820286
O        3.31533000      19.88290000      19.99220000       0.02411960       0.00336150      -0.03040190
H        3.59744000      21.38480000      18.86440000       0.00522494      -0.02685850       0.02782040
H        4.76288000      18.71030000      19.81150000      -0.02281410       0.02126380       0.00060329
O        6.24588000      18.30020000       3.72928000      -0.02146900      -0.02656140       0.04011440
H        4.47650000      18.41250000       3.17185000       0.01295480      -0.00181025      -0.01280120
H        6.04644000      17.10480000       5.25206000       0.00962489       0.02416590      -0.03497510
O       23.72100000       1.02556000       9.36335000       0.00448264      -0.00669827       0.05092260
H       24.15270000       0.84409700      11.26630000      -0.00766766       0.00591242      -0.05043010
H       21.94120000       1.41545000       9.40226000       0.00313566      -0.00293662       0.00365747
O        5.13323000      12.04840000      20.64450000       0.05273150       0.02714320       0.01312370
H        4.86003000      10.85790000      21.99260000      -0.01356260      -0.00820610      -0.00531778
H        6.81288000      12.77650000      21.24040000      -0.04717430      -0.01259870      -0.01849840
O       14.66340000       8.65473000      20.46360000       0.05729440       0.02548340      -0.00901846
H       14.85530000       7.45794000      21.71110000      -0.00016282      -0.03121560       0.03085140
H       13.00050000       8.84949000      20.05920000      -0.05718050      -0.00117585      -0.01239080
O        8.68584000       0.71662000       0.94292700       0.03567180      -0.16617700      -0.08624550
H        9.67836000       1.09201000      24.25924300      -0.00787647      -0.01632660       0.02028290
H        8.54416000       2.21195000       1.43075000      -0.02283540       0.19447400       0.07577550
O        5.05945000       3.47277000       8.37291000       0.03873750       0.07247770       0.00580468
H        6.34406000       3.44122000       7.11045000      -0.00034587      -0.00112350      -0.00176387
H        4.18382000       2.02772000       8.23133000      -0.03834150      -0.06899030      -0.00271980
O        9.12753000      16.16070000      21.74780000       0.02364040      -0.00268579      -0.02322520
H       10.36010000      16.21950000      20.18540000       0.00660196       0.00945332       0.05925880
H        9.61229000      17.48720000      22.99780000      -0.00479610      -0.00591473      -0.02593970
O        0.80733000       1.75394000      14.81440000      -0.06507380      -0.01258070       0.06876260
H        0.48793300       3.55095000      14.57350000       0.00487609      -0.01152210       0.00427369
H       24.29190000       1.22432000      16.39160000       0.06149060       0.02285000      -0.07730250
O       21.77990000      18.92960000      23.79490000      -0.17978800       0.16696000       0.04904490
H       23.27250000      18.39090000      23.79890000       0.19156500      -0.07245530       0.00096338
H       21.99160000      20.79190000       0.12359500      -0.00704226      -0.09444020      -0.05645770
O       20.88530000      12.55210000       0.71574500       0.06129790       0.01592150      -0.01152690
H       21.21000000      12.22830000      23.75930000       0.00064719       0.00486481       0.02107220
H       22.63530000      13.38760000       1.19217000      -0.06318440      -0.02362870      -0.01309640
O       10.24490000       6.57651000       2.15617000       0.04050330      -0.01985920      -0.08912410
H       10.05040000       8.01357000       3.14604000      -0.00483574       0.02947380       0.01829170
H       10.98710000       7.19337000       0.40024600      -0.02929750      -0.01807670       0.06859320
O        7.89548000       5.01541000      14.75630000       0.01297020      -0.02598480       0.00908085
H        6.57768000       6.11015000      14.25430000      -0.01693880       0.01848700      -0.00764671
H        7.08165000       3.34935000      14.77670000       0.00561512      -0.00082012       0.00108994
O       10.86110000      13.73480000      10.03790000      -0.01058820      -0.05127710       0.04043510
H       11.72080000      12.10980000       9.77395000      -0.01038370       0.01436360       0.00660973
H       11.35250000      14.68460000       8.68849000       0.01933890       0.03318710      -0.04666190
O        5.69587000      22.19570000       7.47835000       0.04655410       0.00411090      -0.00444189
H        5.32164000      21.45360000       5.89485000      -0.01661730      -0.01515560      -0.01068350
H        7.59331000      22.17930000       7.20152000      -0.03178550       0.01401890       0.02409590
O        1.66131000      18.72420000       9.63360000       0.00004010      -0.03129410       0.01148610
H        3.31341000      18.94980000      10.41210000      -0.02008650       0.00279641      -0.00535368
H        0.92389800      17.20960000      10.48320000       0.01241370       0.03015730      -0.01099620
O       16.40250000      13.88880000      21.82330000      -0.03064030       0.09311500       0.00050471
H       16.33770000      15.55660000      22.87460000       0.00388593      -0.04969820      -0.03919790
H       17.10630000      12.84300000      22.99410000       0.03141000      -0.04013480       0.03680280
O       16.36940000      20.28990000      19.74520000      -0.35644100      -0.08994910       0.10729600
H       17.74210000      20.68010000      19.42990000       0.35646000       0.09474110      -0.09166140
H       16.09190000      21.04760000      21.39020000      -0.00300422      -0.00701654      -0.00382684
O        2.25638000      16.61920000       0.06843900       0.00745079       0.00007425       0.00719251
H        3.47102000      15.38030000       0.67630500      -0.01200540       0.00417853      -0.00598323
H        9.08184000      15.80890000      18.65270000       0.00516344      -0.01425990      -0.04311970
