192
TotEnergy=-1103.54981000 cutoff=-1.00000000 nneightol=1.20000000 pbc="T T T" Lattice="25.13302000       0.00000000       0.00000000      -0.00000100      25.13302000       0.00000000      -0.00000100      -0.00000100      25.13302000" Properties=species:S:1:pos:R:3:force:R:3:Z:I:1
O              13.65240000      3.53150000      5.30480000      0.00560296     -0.00365527      0.00124471       8
H              12.20570000      4.47070000      5.99525000      0.00999807     -0.00327006      0.00251892       1
H              12.86780000      1.92057000      5.02650000      0.00021516     -0.00186817     -0.00787265       1
O               3.23367000     21.95110000      0.41496800      0.00126997      0.00064236     -0.00166791       8
H               1.61578000     21.99700000     -0.38275800     -0.00386950     -0.00745479     -0.00642274       1
H               4.39363000     21.95040000     24.15440000     -0.00158174     -0.00174846     -0.00095946       1
O              10.45960000     22.88160000     18.17800000      0.01403430      0.01652100      0.00257301       8
H               9.33469000     21.61650000     17.62680000     -0.01347190     -0.01841260      0.00277380       1
H               9.46821000     23.94510000     19.25610000     -0.00058572      0.00048343     -0.00331011       1
O              15.26300000     16.23020000      6.57896000     -0.00102679     -0.00216762      0.00648990       8
H              16.78010000     15.67380000      7.39443000      0.00508624      0.00369276      0.00066106       1
H              15.20480000     18.02750000      6.87270000     -0.00224078     -0.00075946      0.00124833       1
O              22.88230000     11.25490000     21.94050000      0.00069174     -0.00024458      0.00081360       8
H              22.02190000     10.72480000     20.43430000     -0.00519750      0.00255115      0.00128318       1
H              22.02250000     10.44130000     23.32980000      0.00617195      0.00273954      0.00206748       1
O               5.12596000     11.33550000      2.42485000      0.00989157      0.02376740     -0.03181760       8
H               3.96724000     10.53840000      3.48461000     -0.02290170     -0.01363070      0.01590880       1
H               4.28965000     11.42800000      0.77520800      0.00514282     -0.00347141      0.01299540       1
O              22.03230000     16.14570000     14.57940000      0.00023032      0.00365320      0.00174356       8
H              22.29370000     17.21920000     16.01560000     -0.00411535     -0.00025721      0.00434341       1
H              22.25550000     14.48360000     15.27230000     -0.00084775      0.00237458     -0.00368757       1
O               5.26298000     11.39560000      9.34889000     -0.00548518      0.00812567     -0.01080330       8
H               6.39507000     10.31080000     10.22370000      0.00851216     -0.00605977      0.00795827       1
H               6.29387000     12.77050000      8.73874000     -0.00507052     -0.00339179      0.00191206       1
O              10.37850000      9.80757000      2.76804000      0.00432294     -0.00429480      0.00649900       8
H               9.34424000      8.37522000      3.16587000     -0.00290579      0.00400309     -0.00026078       1
H              11.22830000      9.26954000      1.26485000      0.00146369     -0.00145462      0.00117323       1
O              12.62610000     11.33570000      8.41833000      0.00086023      0.00152122     -0.00175552       8
H              13.22310000     13.05250000      8.33257000     -0.00115042      0.00108640     -0.00264436       1
H              11.37340000     11.25920000      7.10206000      0.00251268     -0.00209811     -0.00364911       1
O               3.68480000      0.84067300     19.86870000     -0.00200216     -0.01200100     -0.00314486       8
H               4.11451000      1.27852000     18.15380000      0.00558041      0.00243207      0.00528133       1
H               2.02638000      1.53010000     20.06990000     -0.00013611      0.00070040     -0.00073457       1
O              20.51540000     10.98360000     17.11520000      0.00643626     -0.00331443     -0.00057938       8
H              22.18060000     10.51390000     16.56230000     -0.00337036     -0.00277112     -0.00335653       1
H              19.48810000      9.48543000     16.99130000     -0.00220506      0.00031922     -0.00208618       1
O              21.23370000      4.26547000     20.09000000      0.00024449      0.00314612      0.00088289       8
H              19.82820000      5.41130000     20.31100000     -0.00148695      0.00272955     -0.00114419       1
H              22.20330000      4.89759000     18.70400000     -0.00249240     -0.00032238     -0.00213269       1
O               1.78595000     19.53520000     20.08810000      0.01054730      0.00232410     -0.00163213       8
H               0.75230600     18.24710000     19.34370000     -0.00436332      0.00079758      0.00620828       1
H               1.83211000     20.88840000     18.88170000     -0.00094547      0.00075132      0.00119749       1
O              10.87570000     24.38550000      2.65561000      0.00500434     -0.00416767      0.00114350       8
H               9.14108000     24.89300000      2.69476000     -0.00451624      0.00057621      0.00187223       1
H              11.12120000     23.28590000      4.09477000     -0.00061940     -0.00258838     -0.00298828       1
O               5.25842000      1.42680000      9.39672000      0.00635239     -0.00275184     -0.00157441       8
H               5.31371000      0.70004100      7.73391000     -0.00124876      0.00118743     -0.00318686       1
H               3.58377000      2.09132000      9.55974000      0.00236872     -0.00371396      0.00531908       1
O               4.28477000      6.43524000      4.83155000     -0.00282880     -0.00180349      0.00398384       8
H               5.19389000      7.37161000      6.09167000      0.00093280     -0.00303050      0.00064946       1
H               5.41786000      6.23092000      3.42640000     -0.00089977      0.00309455     -0.00313292       1
O              15.52730000     20.64810000     14.27260000     -0.00134143      0.00221843     -0.00020412       8
H              15.14380000     20.87100000     12.51900000      0.00008078     -0.00394570     -0.00072362       1
H              14.19260000     19.64440000     14.98610000      0.00250627     -0.00172642      0.00057916       1
O               5.81224000      5.55710000     24.65070000      0.00404216      0.00667985      0.00211230       8
H               4.37136000      4.47792000     24.70450000     -0.00347288     -0.00443883     -0.00400806       1
H               5.30077000      6.90923000     23.52880000      0.00309698     -0.00272383      0.00081367       1
O              13.75930000      6.68019000     24.30190000     -0.00587938     -0.00039799     -0.01021540       8
H              13.22650000      4.91216000     24.19330000     -0.00062666      0.01295310      0.00007619       1
H              14.69540000      6.91176000      0.66769700      0.01057710     -0.00127703      0.01891890       1
O               0.22374600     21.88980000     12.48580000     -0.00107708     -0.00212196     -0.00074250       8
H              23.69800000     22.61660000     12.38380000     -0.00188838      0.00043518      0.00544738       1
H               0.02452800     20.29200000     13.32070000      0.00024546      0.00000032      0.00048166       1
O               7.22012000      4.13773000     17.25550000     -0.00235685      0.00080225     -0.00098147       8
H               7.95308000      4.34969000     18.89690000     -0.00221881     -0.00061453      0.00652433       1
H               6.30901000      5.70082000     17.02530000      0.00166012     -0.00804475     -0.00094447       1
O              16.72050000     -0.37037000     18.00940000      0.00225986      0.01032540      0.01164880       8
H              16.55060000     23.44480000     16.80440000     -0.00401555     -0.01132080     -0.00928361       1
H              16.03080000     24.09140000     19.55210000     -0.00282246      0.00175665     -0.00234891       1
O               9.71775000      5.12092000      8.01198000     -0.00140900      0.00463527      0.00070262       8
H              10.47500000      6.28553000      9.17733000     -0.00539383      0.00146328      0.00525221       1
H               8.75250000      3.95836000      9.03543000     -0.00203822      0.00127091     -0.00155466       1
O               1.56055000     12.56800000     13.84170000      0.00024499     -0.00161762      0.00081246       8
H               1.41786000     11.79340000     12.21950000      0.00198362      0.00148110     -0.00789407       1
H               2.83928000     13.85130000     13.57480000     -0.00211095     -0.00162351      0.00642152       1
O              18.14170000      4.94476000     14.57880000     -0.05323430      0.03843840      0.02714770       8
H              16.35140000      6.16213000     15.13160000      0.08611720     -0.06361480     -0.01337200       1
H              19.06310000      4.22811000     16.04320000     -0.03264680      0.01907030     -0.00742050       1
O              22.74680000     12.58620000      3.45924000     -0.01014510      0.00717339      0.00850542       8
H              23.04680000     10.80170000      3.34384000     -0.00247273      0.00343570     -0.00355605       1
H              24.11590000      8.45369000      8.21475000     -0.00176044     -0.00355202     -0.00961710       1
O               7.66870000     21.77140000     12.11640000      0.00464094     -0.03023100     -0.02390280       8
H               6.40384000     22.86320000     11.48970000     -0.01211430      0.01598400     -0.00393393       1
H               8.41155000     22.53410000     13.51140000      0.01053820      0.01964600      0.02260190       1
O               2.94857000      7.26921000     15.31200000     -0.00306943     -0.00256085      0.00461586       8
H               2.14030000      8.88559000     15.03620000      0.00497967     -0.00027147      0.00094453       1
H               2.00573000      5.99979000     14.40160000      0.00147152      0.00187382     -0.00706461       1
O              16.54820000      7.53101000     19.66980000      0.00905661      0.00003169      0.00408756       8
H              16.39620000      8.36526000     21.27380000      0.00007470      0.00040168     -0.00124929       1
H              15.15680000      6.35419000     19.69230000     -0.00234127      0.00304312     -0.00704767       1
O              10.51300000      3.34507000     22.83220000     -0.00534808      0.00493266      0.00127401       8
H               9.29586000      4.50049000     23.59040000     -0.00145347     -0.00526869     -0.00608307       1
H               9.73052000      1.73568000     22.97000000     -0.00220531     -0.00613963      0.00257189       1
O              17.55830000      9.45539000     11.76940000     -0.00193100      0.00265247      0.00223166       8
H              18.44070000     11.03400000     11.81030000     -0.00028867      0.00021174     -0.00145594       1
H              16.70380000      9.38376000     10.17570000     -0.00171198      0.00257329     -0.00067507       1
O              12.23500000      0.31593100     10.96340000      0.01532890      0.02162570     -0.01736130       8
H              12.71160000     24.73360000     12.53200000      0.00244311     -0.00289943      0.01632170       1
H              13.17560000      1.91274000     10.84570000     -0.01360860     -0.01700500      0.00324713       1
O               5.58444000     16.88130000      3.39227000      0.00367654     -0.00522728      0.00157916       8
H               4.89461000     15.20120000      3.59612000     -0.00149977     -0.00055377     -0.00589074       1
H               4.25307000     17.96210000      2.82110000     -0.00141818      0.00269004     -0.00034368       1
O              21.15130000      6.88796000      0.18572100     -0.00071061     -0.00249497      0.00101830       8
H              22.18720000      5.41953000     -0.07668100     -0.00071309     -0.00123971     -0.00042598       1
H              19.81490000      6.35791000      1.28522000      0.00095295      0.00385431      0.00084773       1
O               8.62499000     17.29920000      7.60227000     -0.00293585      0.01295920      0.00725301       8
H               7.75693000     17.05790000      5.99931000     -0.00067399      0.00108664     -0.00114556       1
H               7.81276000     18.82270000      8.22963000      0.00151351     -0.01164240      0.00143082       1
O              13.04720000     12.27980000     22.80240000      0.00227671      0.00058104     -0.00034122       8
H              14.26730000     13.17510000     23.82090000      0.00089366     -0.00169151      0.00162879       1
H              12.98330000     10.61310000     23.52480000      0.00303157      0.00168249     -0.00340434       1
O               2.23691000     21.08540000      7.68036000      0.00178584     -0.00472588      0.00081987       8
H               1.98473000     22.84540000      7.36479000      0.00376764      0.00177011     -0.00517527       1
H               1.25637000     20.79330000      9.19882000      0.00541576      0.00316136      0.00074793       1
O               8.37283000      8.52243000     20.15070000     -0.01187780      0.00184870     -0.00630435       8
H               9.74831000      9.56774000     20.63270000      0.00668300      0.00673672      0.00210012       1
H               7.15275000      9.64756000     19.37650000      0.00411442     -0.00467648      0.00985991       1
O              14.89790000     15.51950000     17.55770000     -0.00694319     -0.00127718     -0.00657279       8
H              14.10060000     14.20740000     18.53010000      0.00276907      0.00011848      0.00259937       1
H              16.02680000     14.65960000     16.43020000      0.00295808      0.00042117      0.00364118       1
O              18.26120000     19.55390000     24.06140000      0.00323725      0.01017800      0.00994163       8
H              17.84860000     18.06730000     -0.08097500     -0.00508088     -0.00300177      0.00120235       1
H              16.80340000     20.66870000     24.11660000     -0.00133362     -0.00576357     -0.00762400       1
O              21.00940000     22.57800000      2.42774000     -0.00652389      0.00615978     -0.00229298       8
H              21.89670000     21.10710000      3.12096000      0.00300219      0.00341549      0.00846661       1
H              19.96220000     21.83420000      1.08555000      0.00465787      0.00088401      0.00444005       1
O              16.73010000     15.00830000      1.75393000      0.00553788      0.00390978     -0.00314718       8
H              18.36620000     14.42380000      2.35657000      0.00098098     -0.00671154     -0.00431280       1
H              15.79930000     15.37290000      3.28984000      0.00208134      0.00018938     -0.00192959       1
O              24.36140000      7.11249000      7.00189000     -0.00232293      0.00148641      0.01140790       8
H              18.92700000     -0.64028800      7.33437000     -0.01356530     -0.00128867      0.00277799       1
H               0.08721300      7.90249000      5.61353000      0.00121965     -0.00054158      0.00013390       1
O              20.89170000      0.57401000     12.62440000     -0.00218416     -0.00074016      0.00276006       8
H              19.69620000      1.56539000     13.60130000      0.00237842     -0.00191109     -0.00128686       1
H              20.38780000      0.91355900     10.93730000     -0.00183070      0.00346640     -0.00501057       1
O               5.22401000     17.62110000     14.40190000     -0.00494420     -0.00427293      0.00041995       8
H               6.16962000     18.41060000     15.76010000     -0.00709740     -0.00852198      0.00076070       1
H               6.13205000     18.12970000     12.93120000     -0.00094545      0.00421854     -0.00490011       1
O              22.25510000     24.08980000     20.36140000      0.00204547     -0.00329836      0.00931854       8
H              21.33690000      0.23912000     21.25880000      0.00070671      0.00352501     -0.00782250       1
H              20.98150000     22.89420000     19.88300000      0.00091139      0.00065675     -0.00198775       1
O               3.59280000     11.61740000     21.57700000     -0.00040056     -0.00069416      0.00060551       8
H               1.80930000     11.92180000     21.34270000      0.00000715     -0.00181971      0.00368812       1
H               4.46505000     13.15770000     21.21320000     -0.00149503      0.00335594      0.00117451       1
O               8.66076000      7.86387000     13.23580000      0.04726570      0.00611905     -0.02439500       8
H               9.39371000      9.55370000     13.31750000     -0.00990282     -0.00910705     -0.00181303       1
H               7.09019000      7.98087000     13.96940000     -0.04263100      0.00285830      0.01868710       1
O               1.78816000      5.93604000     20.61500000      0.00073520     -0.00660889      0.00203141       8
H               2.03828000      5.80674000     18.81410000      0.00002203      0.00772160      0.00325671       1
H               0.01134900      5.96749000     20.92970000     -0.00388154      0.00421137      0.00017815       1
O              12.71750000      5.18358000     16.96910000      0.00502387     -0.00385334      0.00033762       8
H              13.04010000      3.40391000     17.12490000     -0.00146105     -0.00010639     -0.00039948       1
H              10.90080000      5.36241000     16.92170000      0.00195602      0.00031884     -0.00519211       1
O               7.35791000     18.39060000     19.03960000      0.00129748      0.00448903     -0.00475072       8
H               5.88298000     18.53470000     20.09650000     -0.00256368      0.00068118     -0.00185638       1
H               7.86028000     16.66120000     19.24070000      0.00128062      0.00186489      0.00239369       1
O              19.37750000      0.81977900      6.33052000     -0.00507553      0.02067360     -0.04252900       8
H              19.85320000      0.11456100      4.58682000      0.00773044     -0.01057880      0.00977797       1
H              18.05780000      2.18933000      6.00009000      0.00669413     -0.02415570      0.01705990       1
O              16.78850000      9.08477000      4.33801000      0.00410194     -0.00413754      0.00165649       8
H              15.62990000      9.83938000      5.52006000      0.00040320     -0.00072509     -0.00315838       1
H              18.42750000      9.83139000      4.64175000     -0.00015338      0.00495134     -0.00399973       1
O              24.49390000      1.64051000     -0.02012100     -0.02419730     -0.01009670      0.03817080       8
H               0.27651000      1.60995000     23.62590000      0.01749340     -0.00193676     -0.03347420       1
H              23.85110000     -0.07089200      0.23031400      0.00134689      0.01537220     -0.00281469       1
O              14.06630000     22.71140000     22.99350000     -0.00307081     -0.01114700     -0.00043413       8
H              13.01060000     21.39160000     22.27270000      0.00445567      0.01147550      0.00152174       1
H              13.11360000     23.42630000     24.36330000     -0.00378494      0.00104706      0.00277558       1
O               7.90080000     15.19370000     23.05210000     -0.00404930     -0.00098650      0.00270671       8
H               9.64022000     15.50570000     23.43130000      0.00207218     -0.00495841     -0.00040484       1
H               7.18000000     14.67130000     24.63160000      0.00064450      0.00029747      0.00233584       1
O              13.03810000     21.54900000      7.24779000      0.00050264      0.00169230      0.00032109       8
H              13.11980000     23.00740000      8.34886000     -0.00513847      0.00078646      0.00332964       1
H              11.61090000     20.60530000      7.87373000      0.00080550     -0.00309580     -0.00218179       1
O              23.55110000     18.68380000      5.16302000     -0.00631997     -0.00213531     -0.00820180       8
H              25.37720000     18.77200000      5.25734000     -0.00794099      0.00333090      0.00466052       1
H              23.13680000     17.06800000      4.41693000      0.00392876     -0.00863289      0.00086757       1
O               0.58210600      3.62317000     11.67720000      0.00972396      0.00544151     -0.00443184       8
H              24.11450000      2.79686000     11.52390000     -0.00379814     -0.00201030      0.00408141       1
H              26.12990000      4.27294000     10.02180000     -0.01112220      0.00768176      0.00312464       1
O              21.97950000     17.18630000     21.05200000     -0.00297599     -0.00161403     -0.00482535       8
H              20.84340000     18.26520000     21.99290000      0.00194483     -0.00229880     -0.00392962       1
H              21.51350000     15.49450000     21.52370000      0.00413598     -0.00183527      0.00079682       1
O              19.64900000     18.96710000     10.22420000     -0.00057613      0.00012924     -0.00219201       8
H              21.08210000     18.08250000      9.53781000     -0.00025115      0.00301774     -0.00162610       1
H              19.67560000     18.54520000     11.99500000     -0.00033564     -0.00107052     -0.00135608       1
O               3.78544000      0.43392700      3.91157000      0.00123899     -0.00153175      0.00189019       8
H               3.19383000     24.72080000      2.38273000      0.00515167     -0.00041994      0.00992749       1
H               2.99743000      2.05561000      3.96976000     -0.00090375      0.00607579     -0.00168699       1
O               9.51920000     13.12920000     13.04640000      0.00356908     -0.00315336      0.01245550       8
H              11.22270000     13.04580000     13.65850000      0.00126209      0.00404162     -0.00123362       1
H               9.61330000     14.06040000     11.50860000      0.00063123      0.00351923     -0.00662591       1
