192
Lattice="24.39507 0.0 0.0 0.0 24.39507 0.0 0.0 0.0 24.39507" Properties=species:S:1:pos:R:3:force:R:3 TotEnergy=-1103.42874 cutoff=-1.0 nneightol=1.2 pbc="T T T"
O       23.07690000      21.55514000      17.59794000       0.05179060      -0.08191780      -0.00361745
H       21.38570000      21.70633000      17.04514000      -0.02210890      -0.00113541      -0.00573782
H       23.54520000      19.42836000      17.33804000      -0.02107640       0.06805520       0.00008665
O        0.14336000      23.29813000      21.77553000      -0.01247650      -0.01917780      -0.01491830
H        1.68686000      22.77963000      22.59151000       0.01196320       0.00576969      -0.01611590
H       24.15363000      22.35453000      19.92801000       0.00060412       0.02330720       0.04024080
O       13.03660000       2.67220000      16.36120000      -0.02649700      -0.04234560       0.03995950
H       14.01650000       3.47953000      17.75970000      -0.01636970      -0.01317170      -0.01093690
H       12.14670000       1.01087000      17.11970000       0.03984450       0.05904010      -0.02369900
O       17.68004000      15.20281000      22.44658000      -0.11051000       0.04462570       0.02970630
H       19.19341000      14.58966000      22.16578000       0.11004700      -0.03329110      -0.02536400
H       17.72485000      16.70766000      23.54892100       0.00861565      -0.00876955       0.00093041
O        5.94061000       7.52233000      18.75050000       0.05051130       0.02063590      -0.00974514
H        6.86054000       8.56333000      20.11470000      -0.01999910      -0.02129250      -0.00610920
H        7.33590000       7.64933000      17.41670000      -0.03075170      -0.00979916       0.01664440
O       19.60666000       9.97218000       5.86085000      -0.03027580      -0.01670440      -0.03332870
H       18.66308000       9.31912000       7.24987000       0.00263932       0.00139562       0.03062170
H       18.44038000       9.16589000       4.56999000       0.02902030       0.00891157       0.00378385
O       19.63983000       4.08033000      13.23300000       0.01410180      -0.05200780      -0.01989410
H       21.53363000       3.97783000      13.47720000      -0.03866160      -0.00684267      -0.01258610
H       18.87103000       2.33083000      12.48500000       0.02507440       0.05752950       0.03275400
O        0.66349900      17.34434000       7.24596000      -0.06821200       0.03479610      -0.02264380
H        2.06933000      18.14954000       7.95786000       0.04747720      -0.00044116       0.01959540
H       23.96387900      18.93954000       7.06543000       0.01203540      -0.03752090      -0.00963003
O        6.94723000      14.04514000      17.69760000       0.00878486       0.00424474       0.00183559
H        6.06203000      14.34484000      16.01200000      -0.01131650      -0.02485200       0.03694200
H        6.36263000      12.83154000      19.04930000       0.00590810       0.02407200      -0.04084800
O        9.69601000      20.39284000      23.53224000      -0.02582670       0.02664330      -0.04480390
H       11.43740000      20.26514000      23.33254000       0.04760500       0.01439700      -0.01008360
H        9.47773000      19.23454000       0.39207000      -0.02301070      -0.03663090       0.05404960
O       13.14507000       0.24520500       8.47762000       0.03530720      -0.01604010       0.00299589
H       12.83737000       1.14350000       6.96823000      -0.00589807       0.01698260      -0.01911650
H       11.64667000       0.08271100       9.39812000      -0.03117860      -0.00150018       0.01239260
O       12.20407000       3.59893000       4.16536000      -0.04186620       0.00773392      -0.02764920
H       10.27107000       3.83013000       3.78306000       0.06160870      -0.00968230       0.00597176
H       13.11397000       3.27183000       2.53006000      -0.01885530      -0.00252019       0.02029220
O       13.13030000      14.90624000       8.53307000       0.04616620      -0.01256600      -0.02183840
H       14.61060000      14.40374000       7.22877000      -0.05237150       0.01308710       0.02362700
H       11.61800000      13.86254000       8.37617000       0.01095040       0.00087965      -0.00899436
O        3.52313000      14.50090000      13.87733000       0.12006100      -0.08632430      -0.09088660
H        2.00873000      15.15450000      14.04573000      -0.11040100       0.04572940       0.02174140
H        3.55083000      13.36470000      12.10693000      -0.00326718       0.02801770       0.06221100
O       24.22214400       1.39174000       4.17867000       0.01141960       0.16802700       0.07384380
H        0.41495500       0.11804900       3.38676000       0.04460610      -0.14439500      -0.08585050
H        1.48626000       2.47549000       4.14533000      -0.05736490      -0.02313790       0.01171690
O       17.67434000      19.67290000       6.59603000       0.01928450       0.15280500      -0.02872330
H       16.03504000      20.21350000       6.92863000      -0.03086430       0.00594610       0.00786881
H       17.79914000      18.06920000       6.76183000       0.00666523      -0.15577500       0.01476030
O       14.85224000      11.47050000      24.23930000       0.01571980       0.01633090      -0.00802334
H       13.92664000      11.22550000      22.64080000       0.00255386      -0.00738835       0.00483811
H       16.22294000      12.61430000      23.62280000      -0.01361070      -0.00681421       0.00589479
O        3.21447000      16.96996000       2.42007000       0.01241090      -0.02467760      -0.04691470
H        2.32527000      16.75906000       3.94057000      -0.01255640      -0.00117948       0.02140280
H        3.19357000      15.27246000       1.56667000      -0.00033871       0.02465410       0.02004010
O       18.54996000      20.58000000      14.91003000      -0.01732550       0.04718820      -0.02785040
H       17.35316000      21.88700000      14.18123000       0.02690700      -0.00950606       0.00541993
H       17.34876000      19.64090000      15.79613000      -0.01434970      -0.03279670       0.02387180
O        6.37766000       3.60057000       3.26433000       0.03314860       0.08336810       0.02301420
H        5.97046000       2.91137000       4.81609000      -0.01046820      -0.00614444       0.05127710
H        5.98316000       2.38987000       2.18059000      -0.01876900      -0.07269690      -0.07893090
O        4.57053000      18.29070000       9.88617000       0.03489750      -0.00873903       0.01353350
H        6.47643000      18.67450000       9.40237000      -0.04923850      -0.03447420       0.01989070
H        4.27293000      16.64050000      10.88807000       0.02519450       0.04829530      -0.02197380
O        9.56417000       6.88453000      14.86406000       0.04376590      -0.05496300       0.02194280
H       10.81627000       7.75432000      13.72986000      -0.01671820      -0.00265144       0.01403280
H       10.59877000       5.30279000      15.67486000      -0.03417550       0.05223500      -0.03374510
O        5.31556000      23.85902100      23.58908100      -0.00459133      -0.09191320       0.11935200
H        5.22644000       0.56669500      22.36672000       0.00498296       0.07841480      -0.10003500
H        6.68305000      22.64175000      23.62709300      -0.00025062       0.01462690      -0.01216500
O       20.42143000       3.78772000       1.21603000       0.04237160      -0.06763950      -0.01996770
H       19.61113000       5.24376000       1.60423000      -0.03054160       0.05799390       0.02562610
H       21.45743000       3.08890000       2.57513000      -0.00730806       0.01075950      -0.00702006
O        0.07321900      12.45216000       5.88353000      -0.00660008       0.03944680       0.01281270
H       22.93072000      11.36586000       6.07643000       0.01535730       0.03606690       0.00194243
H        0.05318900      14.52756000       6.25553000      -0.01609660      -0.07347510      -0.00296799
O       12.04680000      10.00043000      12.01180000      -0.00491419       0.00935554      -0.04576250
H       11.40130000      10.26123000      10.23240000      -0.01565920       0.00114140       0.03058650
H       13.65060000       9.37103000      11.47820000       0.02450580      -0.00932815       0.01126280
O        7.98127000      19.23020000      18.81850000      -0.00530051      -0.00871034      -0.00895391
H        7.23957000      17.56210000      18.40760000       0.01716900       0.01372090       0.01665160
H        8.78677000      19.30640000      20.50680000      -0.01461500      -0.00484932      -0.00564211
O        7.16453000       9.46683000       2.86176000       0.05163400       0.01824060       0.00727157
H        6.90313000       7.72613000       3.03736000      -0.02035860      -0.02414720      -0.00012260
H        5.72793000      10.49993000       2.66746000      -0.03073180      -0.00055958      -0.00011313
O       12.60090000      10.26923000      20.02890000      -0.00458063      -0.01988340       0.02786170
H       12.66270000      11.40153000      18.66430000       0.00308816       0.01991140      -0.03496160
H       13.32450000       8.62403000      19.59600000       0.00316877       0.00612805       0.00150265
O        5.59470000      22.92384000      16.23720000      -0.02947620       0.00402425      -0.03130130
H        4.17227000      22.59994000      15.00140000       0.02889220       0.00432799       0.03217930
H        5.94141000      21.40144000      17.19610000      -0.00034428      -0.00153396       0.00120556
O       23.37187000      20.49970000       1.45709000       0.03787480       0.01943100      -0.07599520
H        0.19671300      19.21180000       0.76997800      -0.02097840       0.01938180       0.02600830
H       23.58386400      21.82690000      24.15144800      -0.01483130      -0.03206550       0.04354390
O        1.44241000       3.85134000      14.55330000       0.02741220      -0.02349980       0.03466490
H        1.93614000       2.03996000      14.04610000      -0.01097180       0.04889450       0.02202620
H        2.07821000       4.20035000      16.39220000      -0.01920680      -0.02655920      -0.05474320
O       15.27824000       5.91456000      19.96384000      -0.01255210      -0.00948417       0.05442680
H       16.80364000       6.09846000      19.06944000       0.02719770       0.00785620      -0.01217600
H       15.88854000       5.70916000      21.77054000      -0.02092610      -0.00204883      -0.03970080
O        4.55255000       2.98926000       7.98667000      -0.00649795       0.03635100       0.02951140
H        4.38770000       4.49296000       9.28787000       0.01158920      -0.05587770      -0.03289500
H        4.78316000       1.35596000       8.78717000      -0.00660546       0.01792290       0.00969686
O       13.31044000      16.03553000       1.88840000       0.00881408       0.01165700      -0.01123550
H       13.54524000      14.34733000       1.19029000      -0.02084720       0.00362100       0.00313119
H       11.67704000      16.35663000       2.59572000      -0.00377994      -0.01135810       0.00141912
O       17.88500000      11.15673000      16.99730000       0.00196036       0.02317440      -0.04413670
H       17.92080000      12.13613000      15.31350000      -0.00295660      -0.02976000       0.04245680
H       18.65000000       9.46873000      16.82220000      -0.00838116       0.01778440      -0.00573806
O        8.78997000      11.21027000       8.01547000      -0.07365890      -0.04005570       0.02101420
H        8.49257000      10.38897000       6.33258000       0.00385481       0.01664360       0.02469990
H        6.86497000      10.72047000       9.08300000       0.07888990       0.03508770      -0.05598970
O        4.24264000       2.49892000      19.62940000       0.03384880       0.04972490      -0.03309120
H        5.05834000       1.16382000      18.49850000      -0.01844420       0.03344700       0.01517770
H        5.01184000       4.44983000      19.26610000      -0.01513470      -0.06823430       0.01154140
O        3.71797000      11.25407000       9.53153000       0.03209690       0.02989600       0.02595450
H        4.05907000       9.63227000      10.28103000      -0.02439110      -0.01856310       0.00463213
H        2.35207000      11.64037000       8.41053000      -0.01475580      -0.01533350      -0.01918840
O       16.98330000      14.41160000       4.87203000       0.04196780      -0.05494480      -0.00999109
H       18.30990000      12.90420000       4.95613000      -0.04035360       0.04475200       0.00810795
H       16.30430000      14.27070000       3.14883000       0.00347141       0.01236640       0.02712250
O        2.42457000      23.07250000      11.54503000       0.06547890       0.01379740       0.03564230
H        3.19737000      21.47074000      11.23113000       0.01269830      -0.01535940      -0.00175532
H        0.93717000      22.89092000      10.74963000      -0.07600710      -0.00159899      -0.03517910
O       17.13603000       8.18985000      10.82233000      -0.02308530      -0.12490800      -0.04838280
H       18.00523000       6.70466000      11.64453000      -0.01370670       0.02259080      -0.01347700
H       17.63203000       9.54377000      11.62593000       0.03764540       0.10408100       0.05753750
O       15.11358000      17.10274000      18.32087000      -0.01319180      -0.06102920       0.03338870
H       15.54277000      15.85064000      19.84081000       0.00017154       0.04958340      -0.04601690
H       14.01507000      15.86964000      17.33080000       0.01269360       0.02244750       0.00548248
O        5.02486000       7.11277000      12.06307000       0.03127080      -0.01120720       0.01159920
H        6.83006000       6.95527000      12.73987000      -0.03395630       0.00136344      -0.00725152
H        3.96506000       6.20847000      13.27907000       0.00192779       0.00458773      -0.00831312
O        9.53170000      23.12419000      12.01770000       0.07676350      -0.04479350       0.05745890
H       10.73660000      22.38055000      13.78520000      -0.03626190       0.02789840      -0.07515890
H        8.16637000      23.73246900      12.94570000      -0.03218350       0.01229760       0.01472840
O       14.66024000      21.37836000      22.63313000      -0.04762930       0.00246844      -0.09429980
H       14.90554000      20.26554000      21.08563000      -0.01298860       0.03128800       0.02246130
H       15.81114000      20.55994000      23.56393000       0.06678160      -0.03494370       0.07092970
O       11.90890000      13.74047000      16.09079000      -0.05832710      -0.00856935      -0.00405429
H        9.83201000      14.01537000      16.87163000       0.06471990      -0.01972870      -0.03594160
H       12.02570000      12.75147000      14.40932000      -0.01312850       0.02344590       0.04552750
O       21.20150000      17.51700000      11.87000000      -0.01345000       0.05838130      -0.02032240
H       20.07800000      19.09810000      12.19360000       0.02443510      -0.04809480       0.00575937
H       22.41370000      18.24990000      10.66130000      -0.01154180      -0.01846990       0.01443550
O       12.06570000      21.78070000      16.62582000      -0.06312780       0.01728170      -0.01587210
H       10.22960000      21.28950000      16.81780000       0.02248930       0.00968415       0.00654065
H       12.68390000      20.31860000      17.40099000       0.02926600      -0.03057680       0.01127420
O       22.57290000      22.18063000       7.56383000      -0.01853070       0.06559220      -0.01672310
H       20.78570000      22.54603000       7.16093000       0.01339970      -0.02883360       0.01055710
H       23.11460000      23.92933000       6.89253000       0.01012410      -0.04386260       0.01141990
O       16.64284000       7.42434000       2.17236000       0.06626860      -0.12286500       0.08221160
H       16.29594000       8.77043000       1.30749000      -0.05709170       0.11260100      -0.07137490
H       15.36123000       6.52676000       3.07521000      -0.01340430       0.01079200      -0.00663522
O       16.00980000       0.23127000      12.74490000       0.00780090       0.00222998       0.01076630
H       14.89110000       0.17117000      11.33730000      -0.00028872      -0.00432960      -0.02940210
H       14.93620000       1.16477000      13.89100000       0.00378668       0.00522473       0.01704740
O       23.75223600      16.42170000      16.21333000       0.01891800      -0.01045310       0.05103730
H       23.26121000      15.10940000      17.60193000      -0.00202858       0.02449160      -0.03033730
H       22.41670000      16.49850000      15.04213000      -0.02155630       0.00241083      -0.02089050
O       18.52393000      19.39113000       1.23634000      -0.06162410      -0.00132449       0.05933660
H       20.25083000      19.75483000       0.88590200       0.02493870       0.00856958       0.01528560
H       18.01923000      19.66593000       3.24473000       0.03036530      -0.01234580      -0.07481430
O       21.88860000      13.14620000      19.37334000       0.11081500       0.02996640       0.06862090
H       23.42390000      12.02170000      19.89604000      -0.03347620       0.02287760      -0.00704429
H       20.86680000      12.02800000      18.63964000      -0.07126230      -0.05466660      -0.04791000
O        8.01047000      18.37683000       3.53949000       0.06933760      -0.00809964      -0.03103440
H        6.47537000      17.89963000       2.91353000      -0.06176390      -0.01619560      -0.01301260
H        7.85407000      19.11153000       5.09457000      -0.00224552       0.01709400       0.04648330
O        9.67599000      18.74134000       8.70773000       0.02301860       0.03428900       0.03357830
H       11.38160000      17.91034000       8.91173000      -0.03323590       0.00534306      -0.00758864
H        9.72358000      20.29324000       9.84903000       0.00311249      -0.02976560      -0.02223030
O        2.57999000      11.82323000       1.59845000      -0.04416240       0.02628640       0.04726070
H        0.77484000      11.97773000       2.26109000       0.04925820       0.00183993       0.01031850
H        2.16763000      11.03563000       0.12426900       0.00198938      -0.03049110      -0.06726280
O       17.27366000      13.48607000      11.72890000      -0.16317300      -0.07644140       0.03658120
H       15.48830000      13.92017000      10.86530000       0.06140050      -0.00682194       0.02410870
H       18.50503000      14.35277000      11.11020000       0.10155500       0.08432280      -0.05662230
O       19.71291000       6.72699000      17.71220000      -0.13174700       0.12034800       0.05611180
H       21.20394000       6.46039000      18.24070000       0.16062900      -0.01569150       0.08471740
H       19.72942000       5.63899000      16.53560000      -0.02291350      -0.11853900      -0.14198200
O        1.39473000       9.80817000      20.63758000      -0.05247560      -0.04138410       0.03939330
H        0.83983000       7.86117000      21.00726000       0.02525050       0.05729670      -0.02371230
H        2.78633000      10.15147000      19.58954000       0.01776430      -0.02182440      -0.01281170
O       23.43020000       4.88086000      21.10933000       0.05705180      -0.06661000       0.02032090
H       22.75870000       4.25338000      22.77853000      -0.00110052       0.01618550      -0.02597030
H        0.42843000       3.36820000      20.83073000      -0.04857280       0.05418660       0.00337387
O       15.31350000       2.20273000       0.06136000      -0.13070200      -0.01641380      -0.03426020
H       16.89190000       2.18353000       0.50876000       0.13090400       0.00230555       0.03616160
H       14.92510000       0.43783000      24.04313000       0.00021197       0.01461490      -0.00333757
O        8.16177000      10.50010000      22.23780000       0.06834580      -0.00642765       0.03456770
H       10.10347000      10.57670000      21.65680000      -0.05739190      -0.00497244       0.00163189
H        8.44577000      10.03870000      24.13300000      -0.02310560       0.01117670      -0.04535110
