192
Lattice="24.52358 0.0 0.0 0.0 24.52358 0.0 0.0 0.0 24.52358" Properties=species:S:1:pos:R:3:force:R:3 TotEnergy=-1103.45124 cutoff=-1.0 nneightol=1.2 pbc="T T T"
O       24.15900000      17.98997000      15.85616000       0.01431660      -0.02018580       0.01207460
H       22.69080000      19.06205000      15.77136000      -0.00164585      -0.00897675      -0.00344095
H       23.85810000      16.13642000      16.07356000      -0.01107160       0.03096900      -0.01124750
O        0.89994000      23.30152000      22.02062000       0.07736710       0.01720350       0.01160280
H        2.56544000      24.36992000      22.64560000      -0.05059680      -0.03828670      -0.03403590
H        1.66084000      22.25432000      20.46385000      -0.01548070       0.02881340       0.02613970
O       12.98330000       2.55845000      16.02830000       0.07081340       0.08823980       0.03484310
H       13.82740000       2.96043000      17.80780000      -0.02001320       0.00428047      -0.04895240
H       12.02300000       1.20507000      16.27850000      -0.05170960      -0.08148720       0.01235630
O       20.37803000      12.28408000      23.37841000      -0.02278950      -0.04921430       0.05694640
H       21.38946000      11.98998000      22.00863000       0.02962200      -0.01105810      -0.05188060
H       19.84263000      13.92228000      23.44053000       0.00320926       0.06387650      -0.00652319
O        5.93637000       8.43592000      19.50610000       0.02271640       0.05200630      -0.01457870
H        7.07817000      10.06232000      20.09310000      -0.04184700      -0.06341520      -0.03592460
H        5.46667000       8.31712000      17.52550000       0.02489820       0.00749360       0.06202220
O       18.28459000      10.21160000       8.38789000      -0.01900240       0.01847090      -0.01017680
H       17.18497000      11.75560000       7.99132000       0.02133580      -0.01815500       0.01608480
H       18.14555000       9.20617000       6.88656000      -0.00208212      -0.00558657      -0.00803797
O       21.52662000       3.93572000      13.49620000      -0.08263200       0.04957420      -0.00977341
H       22.57212000       2.61482000      13.93630000       0.02060460      -0.04461230       0.00772045
H       19.62552000       3.40492000      13.23460000       0.05894140      -0.00609669       0.00525891
O       24.38553800      16.55346000       8.24278000      -0.01026940       0.03799210       0.00851388
H        1.44726000      17.24796000       9.05670000      -0.02609550      -0.00722295      -0.01476750
H       23.22285000      18.08166000       7.96063000       0.03012330      -0.03197700      -0.00213965
O        8.80082000      16.28486000      17.78760000       0.02790280      -0.03908830       0.06741870
H        7.21582000      15.63216000      17.42810000      -0.04596450      -0.01106580      -0.03460880
H        8.99802000      15.05196000      19.40850000       0.01621780       0.02879170      -0.03864840
O        8.96197000      21.69536000      24.09506000       0.07863190       0.05365890       0.00388435
H       10.67640000      22.15406000       0.45108000      -0.05444240      -0.01871100      -0.03395220
H        8.12664000      20.67846000       0.73768000      -0.01826060      -0.03291800       0.02556150
O        9.45858000       3.64207000       8.44717000       0.04101750       0.01527320       0.04371480
H       10.48018000       4.11860000       7.03816000       0.00243095      -0.00387012      -0.01465260
H       10.57918000       4.37711000       9.89435000      -0.03625100      -0.00395035      -0.02488380
O       13.23758000       4.52692000       3.10474000      -0.06365830       0.06601690       0.13179300
H       11.59168000       4.71392000       2.48394000      -0.03222360       0.01261220      -0.00185750
H       14.00668000       3.87592000       1.84364000       0.09376390      -0.07523390      -0.12238900
O       10.88190000      14.92526000       8.98008000       0.00433738      -0.05692060      -0.06518500
H       10.82380000      13.73586000       7.04778000       0.00873020       0.04060120       0.06470220
H       10.56470000      13.74906000      10.40028000       0.01064800       0.01780340      -0.01855460
O        4.77072000      14.93120000      14.34502000      -0.08603800       0.02443960       0.07567940
H        2.82562000      14.40640000      14.85092000       0.07177620       0.01495350      -0.02721780
H        5.17642000      13.99820000      12.96452000       0.01222550      -0.04088100      -0.05257010
O        0.26481700       1.59719000       2.54210000       0.06872790      -0.01622210      -0.04566770
H        2.01353000       1.77157000       1.52469000      -0.06647350       0.00542436       0.04184230
H        0.04594900      24.29086900       2.30184000      -0.00547384       0.01626860       0.01221900
O       17.57216000       0.05722000       7.73332000      -0.00575029      -0.00898245      -0.02815200
H       18.57596000       1.24652000       6.47612000      -0.03155880      -0.02550130       0.02320610
H       16.18396000      23.74800000       6.76792000       0.02567360       0.02056890       0.01766300
O       15.72906000      12.07680000       0.20842000      -0.05347950       0.00538693      -0.03412460
H       14.51046000      12.11340000      23.16860000       0.05586720      -0.00659257       0.04784460
H       17.51046000      11.95620000      24.17200000      -0.01057650      -0.00879396      -0.01243720
O        2.26688000      16.14794000       2.80528000       0.01056620       0.02124360      -0.08381130
H        2.29818000      16.51024000       4.44668000      -0.00519214       0.01124900       0.09370920
H        2.12128000      14.39944000       2.60848000      -0.00685945      -0.03727450      -0.00327985
O       19.84234000      20.85190000      14.79542000      -0.01225060      -0.01164410       0.02415090
H       19.26184000      22.48300000      14.03952000      -0.00145202      -0.02612380       0.02778650
H       19.13374000      20.26870000      16.52272000       0.00403131       0.03718390      -0.04782010
O        7.60224000       5.48428000       1.71713000       0.01803930      -0.01026800      -0.00701448
H        6.61724000       4.99748000       3.12960000      -0.01406910       0.00446537       0.02105770
H        7.60104000       3.93728000       0.75737700      -0.00422667       0.00560904      -0.00996718
O        3.85732000      18.92520000      10.27538000       0.00446513      -0.00297976       0.01748680
H        5.63232000      19.29340000       9.97218000       0.00280297      -0.00360323      -0.01735730
H        4.03762000      17.86110000      11.74658000      -0.00945987      -0.00033141       0.00819406
O       10.89158000       6.16034000      12.68124000       0.00737891      -0.07985850       0.05032320
H       11.88978000       7.50647000      13.25204000       0.01229490       0.02494330       0.00303391
H       11.52528000       4.68173000      14.07954000      -0.01714050       0.04761640      -0.04353720
O        5.50469000       1.59681000      22.76833000      -0.20697900       0.22132800      -0.00829633
H        5.42421000       2.78213000      21.20553000       0.00102991      -0.04460860       0.04062240
H        6.62788000       0.56907600      22.65485000       0.20160900      -0.18593700      -0.02762430
O       19.32342000       2.84967000       4.46432000       0.04305870       0.00224552      -0.01289430
H       18.60352000       4.50652000       4.69942000       0.01113940       0.00496039      -0.00847805
H       21.17752000       2.91209000       4.07532000      -0.03135000       0.00935951       0.00618623
O       23.45086000      11.00924000       7.44922000       0.12128500       0.07725170      -0.01910630
H       21.89844000      10.63114000       7.86192000      -0.12048100      -0.03056070       0.02831620
H       23.51531000      12.92174000       7.75122000       0.00504407      -0.04253020      -0.00811754
O       10.43870000      12.48442000      13.59210000      -0.00441432      -0.05939550      -0.04234610
H        8.96913000      11.67252000      12.67190000       0.02057830       0.00552764       0.01839980
H        9.67694000      13.84602000      14.32630000      -0.02172200       0.04736770       0.03130670
O        7.99328000      20.78060000      19.01270000      -0.01462360      -0.03628910      -0.04141860
H        8.08898000      18.77300000      18.61560000       0.00943816       0.04902590       0.01050990
H        8.85528000      21.03390000      20.55670000       0.00178932       0.00382202       0.02447980
O        7.17922000      10.76562000       1.23394000       0.03286610       0.03868240      -0.00058833
H        7.62872000       9.03892000       1.15214000      -0.01357560      -0.02464610      -0.00056551
H        5.41912000      11.09992000       1.23204000      -0.01603130      -0.01421300       0.00545311
O       13.95840000       9.99592000      19.50240000      -0.03381280       0.06320720       0.03627930
H       14.41530000      10.66642000      17.91430000       0.01792640       0.00043560      -0.02339020
H       14.19860000       8.32782000      19.85300000       0.01439640      -0.06043960       0.00176261
O        2.74630000      21.41656000      17.71820000       0.10224200       0.02126820       0.00857520
H        2.22698000      19.71356000      17.68340000      -0.01457390      -0.02640770      -0.01271340
H        4.94233000      21.31066000      17.73070000      -0.08379340       0.00597144       0.01431310
O       24.18251500      20.47470000       1.42283000       0.07536770       0.01447050      -0.00599782
H        1.37070000      19.46440000       1.95764000      -0.07310260       0.03212280      -0.02573680
H        0.28790300      21.97060000       0.11365900      -0.01898320      -0.05656720       0.01348240
O        0.97778900       0.35467300      14.14240000      -0.01782990       0.03576870       0.00700570
H        1.33602000       0.11462800      12.43180000       0.00174819       0.00936717      -0.04667860
H        1.57027000      23.35744000      14.73480000       0.00870481      -0.05478480       0.03447180
O       15.37386000       4.94624000      20.25156000       0.02539740      -0.00160364      -0.02127220
H       17.19496000       5.31734000      19.69206000      -0.02933200      -0.01160990       0.01313400
H       15.48816000       3.72214000      21.60166000       0.01068030       0.00547365       0.00712545
O        4.83299000       4.46924000       6.79398000       0.04554290       0.04837820       0.00952588
H        6.40686000       4.12394000       7.78538000      -0.01720870       0.00670189      -0.01389960
H        3.96527000       2.98404000       6.83818000      -0.03640850      -0.05306950       0.00125752
O       11.36376000      12.28872000       4.34051000      -0.06336560      -0.00669457       0.00586327
H       12.70816000      12.80062000       3.22735000      -0.01189170      -0.00085068      -0.00728677
H        9.51396000      12.10742000       3.53776000       0.06683730       0.00691361       0.00580858
O       15.38710000      12.50442000      15.47680000       0.05898380      -0.03217870      -0.02672790
H       16.70460000      11.50692000      14.33020000      -0.02477810       0.03186720       0.03950110
H       13.85850000      12.24412000      14.63090000      -0.03287810      -0.00134480      -0.01992010
O        6.49168000      11.29628000      10.48570000       0.02912000      -0.00416509      -0.03058120
H        7.57138000      10.94388000       8.98046000      -0.02336840       0.00950791       0.02611050
H        4.97738000      10.27558000      10.21990000      -0.00284714      -0.00891553       0.00468588
O        3.27286000       2.50481000      17.96100000      -0.02324530      -0.04898090      -0.00179655
H        2.46976000       1.43728000      16.53870000       0.02070730       0.03103930       0.02803020
H        3.74876000       4.00827000      17.18720000       0.01271060       0.03069440      -0.02279620
O        2.69448000       7.96658000      10.25722000       0.03302780      -0.02790920      -0.01788920
H        3.13658000       6.90498000       8.71152000      -0.01189700       0.01715730       0.02925470
H        1.19848000       8.88298000       9.94702000      -0.02102890       0.00957862      -0.01242980
O       16.44900000      16.76320000       2.91662000       0.02124250       0.04066330       0.08205580
H       16.73200000      15.89280000       4.56902000      -0.00378945       0.03045570      -0.00302949
H       16.01580000      15.32330000       2.15122000      -0.02981590      -0.07269460      -0.06628080
O        1.66158000      23.53126100       8.97752000      -0.01025090       0.04447430      -0.01061080
H        2.21308000      21.95463000       9.43732000       0.03238620      -0.05080460       0.02485210
H        0.34038000      22.97761000       7.90342000      -0.02320930       0.00790944      -0.01512470
O       19.53342000       9.98165000      13.27642000      -0.00871232      -0.02114270      -0.04179240
H       20.24062000       8.37284000      13.73262000       0.00248824      -0.00017516       0.01380290
H       19.07452000       9.52781000      11.44002000       0.00520971       0.02601840       0.02766520
O       17.36302000      19.72246000      20.05854000      -0.01763010       0.00398679      -0.02764260
H       18.35197000      18.66986000      21.04943000       0.03929250      -0.01437560       0.03671700
H       16.20142000      18.43006000      19.49586000      -0.01232580       0.00593823      -0.02000590
O        5.14104000       6.49068000      15.19817000       0.04748140      -0.00833069      -0.05718630
H        6.87534000       6.05778000      14.26128000      -0.05970650       0.01975750       0.03311370
H        4.01054000       7.04618000      13.82418000       0.01020890      -0.00582560       0.00596762
O       11.57520000      23.59277100      10.18710000      -0.06020610       0.07450890       0.04127540
H       10.45030000       0.84371500       9.74774000       0.04636240      -0.07381790       0.00457247
H       11.38420000      23.59011100      12.16390000       0.01125790      -0.01378290      -0.05816380
O       15.00546000      21.64023000      23.81682000      -0.00755175      -0.02646100       0.04315790
H       15.48146000      20.79226000      22.26172000       0.00929283       0.00452635      -0.00687423
H       15.42986000      20.32391000       0.61744000      -0.00675454       0.03055300      -0.02514860
O       14.26180000      17.24470000      17.09691000       0.00521832       0.00996707       0.00136923
H       14.61710000      15.57301000      16.51583000       0.01813290      -0.01573520      -0.00709081
H       12.51220000      17.33177000      16.81241000      -0.02647060       0.00106723       0.00478142
O       20.07760000      15.88480000      11.87230000       0.00982279       0.05995760       0.00614023
H       19.88860000      17.65370000      12.79740000       0.00875182      -0.05469240      -0.03008170
H       21.61490000      16.08120000      10.79170000      -0.02016880      -0.00132687       0.02063900
O       11.50510000      22.04620000      15.10110000       0.04578830       0.00772467      -0.03300000
H       10.06570000      22.08710000      16.06609000      -0.04355790      -0.01454980       0.03946910
H       12.59750000      20.66820000      15.56844000      -0.00404494       0.00586168       0.00082082
O       21.79760000      20.88262000       6.13302000      -0.03603950       0.03917220      -0.04238650
H       20.23730000      22.06272000       6.47512000       0.04479130      -0.03584070      -0.00622872
H       22.15270000      20.94382000       4.17172000      -0.00534066      -0.00428984       0.05778430
O       17.39442000       7.94632000       3.39551000      -0.02554160      -0.12985000       0.11365300
H       16.83080000       9.00100000       2.29811000      -0.03367330       0.11129400      -0.10864500
H       15.58836000       7.07046000       3.58951000       0.05548220       0.01404750       0.00182195
O       17.19600000       1.24678000      12.98730000       0.02112050       0.00697049       0.05420330
H       16.54280000       0.99558000      11.42170000      -0.01071490      -0.01435850      -0.07710170
H       15.66660000       1.33948000      13.93130000      -0.00770640       0.00606700       0.02156130
O       24.09736600      12.99250000      14.95672000      -0.05417690      -0.00361443      -0.05748330
H       23.78556200      11.91020000      16.33002000       0.00365869      -0.01695200       0.03396600
H       22.40338000      12.62270000      13.91672000       0.05640000       0.01917360       0.02706340
O       19.92542000      17.28832000      24.21185900       0.08345630       0.07053590      -0.05381970
H       21.48822000      18.46012000       0.16993100      -0.04180590      -0.03653290      -0.02173070
H       19.46812000      16.74122000       1.24046000      -0.03054220      -0.01716560       0.06509160
O       23.14300000      10.53150000      19.43436000      -0.01029640      -0.01601170      -0.01957320
H       24.35910000       9.74677000      20.49476000       0.02638130       0.00028489       0.02318120
H       22.45860000       8.93257000      18.80496000      -0.01689120       0.01109300      -0.00141697
O        7.30968000      17.86642000       2.68021000       0.07661070       0.04280320       0.02932600
H        5.71358000      17.28482000       2.39273000      -0.05980150      -0.01839180       0.00438010
H        7.59118000      18.71292000       4.35548000      -0.01787660      -0.02450460      -0.02580010
O        8.38135000      19.32076000       8.32732000       0.02330530       0.08901610       0.01946640
H        9.90033000      18.42726000       8.31332000       0.01921230      -0.04822780      -0.00128028
H        9.35817000      20.92336000       9.05292000      -0.03666820      -0.02673720      -0.02011680
O        1.86215000      10.58922000       2.67472000       0.03080130       0.02883150       0.01471770
H        0.75256100      10.50462000       4.06671000      -0.01566450      -0.00180326       0.01800700
H        1.09311000       9.85142000       1.27549000      -0.01352420      -0.02012650      -0.02871180
O       16.21802000      14.76862000       8.09457000      -0.01264930       0.02053290       0.00707191
H       14.37488000      15.16704000       8.50389000       0.03369010      -0.00559773       0.00091030
H       17.45174000      15.72163000       9.18376000      -0.02473290      -0.01720020      -0.00711337
O       20.37214000       5.82747000      18.42510000      -0.02696290      -0.00041280      -0.09100810
H       21.72973000       4.86269000      18.94110000       0.03597520      -0.02612880       0.05316750
H       20.60868000       5.01727000      16.60320000      -0.01941480       0.03235460       0.03258210
O        1.84922000       7.90008000      22.86269000       0.04542500      -0.03542820      -0.04962380
H        1.38062000       6.12228000      22.50105000      -0.01960810       0.01645850       0.01410300
H        3.43842000       7.76178000      21.67822000      -0.02696980       0.02721640       0.02848180
O       23.91530000       3.65759000      21.05362000      -0.02742890      -0.04436820       0.08192050
H       24.05460000       1.92387000      22.05542000      -0.01227120       0.05237530      -0.03595900
H        0.45912000       3.27991000      19.74452000       0.04654010      -0.01434320      -0.04748670
O       16.53600000       1.85962000       0.22444000      -0.04002390      -0.04453410      -0.04525110
H       17.91610000       1.78442000       1.37444000       0.00481983      -0.00619339       0.00437129
H       15.94070000       0.00312000      24.07752000       0.02797210       0.04819260       0.03406370
O        9.58058000      12.34240000      21.06140000       0.00728088       0.00445038       0.00320936
H       11.33098000      11.65800000      20.92660000      -0.01786370      -0.00217572      -0.00781941
H        9.00188000      12.22690000      22.79530000       0.00146705      -0.00178593       0.00312640
