192
Lattice="24.47592 0.0 0.0 0.0 24.47592 0.0 0.0 0.0 24.47592" Properties=species:S:1:pos:R:3:force:R:3 TotEnergy=-1103.48263 cutoff=-1.0 nneightol=1.2 pbc="T T T"
O       20.45930000       2.84152000      16.95574000      -0.01513460       0.00776708      -0.07202360
H       21.22680000       2.73622000      18.47174000       0.03028860      -0.00735859       0.06742700
H       18.97290000       1.83672000      16.89354000      -0.01580370      -0.00502935       0.00740903
O       22.77408000      19.38218000      11.55930000      -0.00085388       0.00543103      -0.00093762
H       24.03228000      18.23598000      10.89570000       0.00013501      -0.00333618       0.00784844
H       22.28998000      20.40318000      10.12760000      -0.00254283       0.00093282      -0.00856680
O        8.83969000       1.37468000      16.28940000       0.03488080      -0.03139710      -0.00133310
H        9.49388000      24.22797300      15.61020000      -0.00825329       0.02889190       0.00725444
H        7.13748000       1.45251000      15.78660000      -0.02665170       0.00081546      -0.00807887
O       19.07180000      14.81703000      24.47015200       0.00158043      -0.12128300       0.06173060
H       19.49463000      16.39982000      24.02559800       0.02036830       0.08023030      -0.01779370
H       20.20883000      14.03392000       1.42644000      -0.02644680       0.02800190      -0.03809880
O        6.64439000       7.52858000      20.34630000       0.01981610       0.05995750      -0.05437020
H        6.94089000       9.24178000      19.25920000      -0.01079360      -0.06012300       0.03981130
H        8.01905000       6.39108000      19.75280000      -0.00770487       0.01283580       0.01705870
O       23.05054000      13.31150000       8.42508000      -0.03444950      -0.01012270      -0.02012750
H       22.26060000      13.18460000       6.66353000       0.04574400       0.00615784       0.03586100
H        0.02691300      14.39930000       8.80040000      -0.00283076       0.00093635      -0.02219280
O       12.57428000      22.67600000      12.92520000      -0.01199490      -0.01196050       0.03626540
H       13.17768000      23.38420000      11.40270000       0.00187606      -0.00862859      -0.01935270
H       11.76438000      20.97830000      12.91040000       0.01234870       0.02005980      -0.01177190
O       24.09351400       0.29812000      12.96760000       0.04084620       0.01669210      -0.02331730
H       23.73169200      23.08084000      12.72810000      -0.00345107      -0.04497860      -0.00940447
H       22.76271000       0.93722000      13.85300000      -0.04603210       0.02638410       0.03604740
O        7.79548000      12.46234000      17.46780000       0.01652600      -0.18439900       0.01134370
H        9.52848000      12.60074000      17.21610000       0.04491980      -0.01625730       0.00183912
H        7.49018000      14.01234000      17.35790000      -0.06279060       0.19490900      -0.00461773
O        6.47180000      21.13904000      22.64994000      -0.10968800       0.03087690      -0.01464320
H        7.97206000      20.52684000      23.06934000       0.09814060      -0.04027610       0.02791230
H        5.29502000      20.66824000      24.00594000       0.00908328      -0.00270349      -0.01168380
O       13.11592000       3.09551000       4.63583000      -0.06941900      -0.01184310       0.00329607
H       11.17022000       2.79799000       4.19779000       0.05874520       0.01091030       0.02395470
H       13.91512000       3.02403000       3.04471000       0.01180070       0.00316854      -0.02383250
O       14.06202000      11.87948000      23.92008000       0.06980460      -0.01855200      -0.03896990
H       14.96680000      10.27268000      23.64018000      -0.01744940       0.02076120       0.00307249
H       12.74132000      11.51318000       0.49066000      -0.05522110      -0.00864774       0.04098160
O       14.65320000      19.06634000       7.11692000       0.00807457       0.00256279       0.01881630
H       15.74910000      17.74094000       7.88072000      -0.00940822       0.01058150      -0.01916620
H       13.39480000      18.32734000       6.05222000      -0.00682701      -0.00511829      -0.00609081
O        2.68808000      15.59200000      10.34698000       0.02327530      -0.02601490       0.05523080
H        3.99168000      16.96750000      10.42178000      -0.01355130      -0.02973970       0.00300174
H        3.19468000      14.19110000      11.84368000      -0.01046000       0.05632720      -0.05381360
O       23.69358800       2.44355000      22.72989000       0.07358640       0.03424140      -0.02276940
H        1.14097000       3.00395000      22.39636000      -0.07065750      -0.01789540       0.00003917
H       23.93374600       1.06475000      23.82772200      -0.00711264      -0.02014240       0.01720440
O       21.64274000      22.92770000       7.41798000      -0.01603950       0.00103943       0.04371680
H       22.04154000      22.67630000       5.68098000      -0.01163100      -0.00238421      -0.01842710
H       19.79214000      23.10980000       7.83518000       0.01966670      -0.00379472      -0.02689050
O       19.02414000      10.51360000      21.47960000       0.06597830       0.00833746       0.06877860
H       17.89084000      10.11440000      20.25230000      -0.05937650      -0.00926814      -0.04213600
H       18.57424000      11.67350000      22.89190000      -0.00133083       0.00276671      -0.03333790
O        9.85752000      12.25146000       2.57012000       0.09762450       0.07380110       0.07606880
H       10.51472000      11.98046000       4.40872000      -0.03695410      -0.00666186      -0.05507790
H        8.79452000      11.16426000       1.83962000      -0.06224970      -0.06762350      -0.01267480
O       16.21996000      23.91660000      16.55798000      -0.03532350      -0.02492270      -0.03020760
H       14.66156000      23.25460000      15.54398000       0.02938060       0.02620040       0.01745850
H       17.44126000      22.82350000      15.76338000       0.00816183      -0.00835016       0.00199034
O        7.98556000       2.26442000       5.43666000      -0.06038060       0.02590470       0.05818420
H        7.28346000       3.18292000       7.21273000       0.03628670      -0.03821510      -0.06797750
H        6.43106000       2.38562000       4.32501000       0.03636970       0.00828744       0.01296490
O        7.55288000      17.63200000      10.21192000       0.01764780       0.00058754       0.01637610
H        7.79878000      16.11120000       9.25662000       0.00022670      -0.00964077      -0.00836229
H        8.80868000      17.41700000      11.65212000      -0.02915750       0.01497350      -0.01899280
O       16.12910000       8.43131000      12.59206000       0.06527770       0.03335040       0.05132160
H       15.43220000       7.10950000      11.80646000      -0.05614570      -0.06827120      -0.04466670
H       17.80815000       7.57851000      12.97816000      -0.00824325       0.02654660      -0.00035150
O        4.89357000       1.57857000      22.55456000       0.05734690       0.04685150      -0.01941570
H        5.67130000      24.39904700      22.48324000      -0.00030123      -0.00356704       0.00227425
H        6.48431000       2.79655000      22.17805000      -0.05124820      -0.04331890       0.00972361
O       19.79308000       5.48067000      23.61390000      -0.00140684      -0.00778538       0.01137360
H       19.23068000       7.18668000      23.22620000       0.02169030      -0.00820942      -0.01451660
H       21.40348000       4.80107000      22.89390000      -0.01984650       0.01455040       0.00731991
O       22.28938000      12.15686000       2.78368000      -0.13499000      -0.07105510       0.06381480
H       21.74508000      10.22906000       2.88778000       0.02457590       0.05952670       0.00044039
H       23.74794900      12.43766000       2.03008000       0.10600000       0.00522995      -0.04200610
O        9.43317000      12.92898000       8.23292000      -0.01944060      -0.02269870       0.03171050
H        8.29806000      11.53618000       9.24701000       0.05332240       0.05183730      -0.03060670
H       10.91320000      13.74568000       9.12800000      -0.03230290      -0.03845880      -0.00431551
O        6.74212000      17.99060000      18.14520000       0.06509820       0.00831903       0.10888600
H        5.25632000      18.29120000      17.36560000      -0.06160090       0.02042140      -0.02904900
H        6.58412000      18.79470000      20.09250000       0.00114622      -0.02594130      -0.08135310
O        5.77938000       9.14898000       1.19196000       0.02129040       0.13603700      -0.09261210
H        6.28658000       9.00978000      23.82388000      -0.01280710      -0.01416060       0.04026760
H        5.75748000       7.64848000       1.90546000      -0.00432959      -0.10912100       0.03649330
O       14.98970000       8.76778000      18.26660000       0.11937900      -0.14163100      -0.12001100
H       15.35600000       8.91078000      16.20310000      -0.01489160      -0.01177000       0.08283640
H       14.15070000      10.08938000      18.56020000      -0.10338900       0.15395800       0.03312660
O       23.08692000      22.04574000       2.09118000      -0.00672065       0.04461790       0.02272910
H       22.01891000      21.02534000       1.15278000      -0.04470740      -0.01626480      -0.02896250
H       24.42810200      20.93224000       2.11748000       0.05151050      -0.02514760       0.00799261
O        2.44445000      13.23050000       1.26317000       0.04457990      -0.02250730       0.03713180
H        3.87718000      11.97900000       1.18517000      -0.01779120       0.01216630       0.02214970
H        2.02584000      13.15420000      24.06001700      -0.02391720       0.01015230      -0.06077430
O        3.89500000       2.71643000      14.29610000      -0.07025890       0.01947150      -0.00108439
H        2.16694000       2.28065000      13.05470000       0.07078590       0.01400230       0.06073920
H        3.35008000       3.87936000      15.85020000       0.00517845      -0.03878040      -0.05271310
O        9.95064000       3.84426000      20.80424000       0.03005130      -0.06325530      -0.00291692
H        9.97594000       2.46096000      19.45554000      -0.00706555       0.03518360       0.01835220
H       11.44414000       3.27926000      21.86764000      -0.02369880       0.02457890      -0.01674560
O        2.83795000      23.91628000       8.82972000       0.08276890       0.01038050      -0.04535380
H        3.83600000      23.49448000       7.17732000      -0.03606200       0.00240779       0.05363100
H        1.16625000      23.46248000       8.68672000      -0.04472210      -0.01274690      -0.01341730
O       16.17634000      11.11298000       4.86838000       0.02512840      -0.03984020       0.02824700
H       16.13164000      11.73028000       3.20198000       0.00207149       0.00283845      -0.02335070
H       17.32034000       9.55008000       4.93696000      -0.02664420       0.03967760      -0.01153190
O       23.73430000      10.01378000      12.66020000       0.00182842       0.05256480      -0.04441890
H        0.96338000      10.42918000      13.20400000      -0.00411913      -0.00247588      -0.00034753
H       23.45170000      11.33878000      11.16790000       0.00210057      -0.04571490       0.04017690
O       13.25232000       4.15752000      10.16450000      -0.09155730       0.11837000      -0.03602090
H       13.09522000       4.65502000       8.31607000      -0.00026839      -0.00819571       0.03566920
H       14.34002000       2.95042000      10.00170000       0.09242080      -0.10990200      -0.00588661
O        2.16244000       5.06466000      19.16050000       0.03752980       0.03753270       0.00133955
H        1.30114000       6.70015000      19.15950000      -0.00567410      -0.01342370      -0.00568028
H        3.93704000       5.76899000      19.54320000      -0.03124070      -0.01678930      -0.00339374
O        5.67382000       8.76542000       9.46978000       0.01440830      -0.02837540       0.00171892
H        6.32522000       6.92302000       9.73528000      -0.01236600       0.04070930      -0.00481792
H        4.76322000       8.87192000       7.90208000       0.00069014      -0.00664368       0.00255953
O       17.69200000      15.23300000       7.70548000       0.06077180      -0.00816773       0.02389970
H       19.54160000      14.83170000       8.04078000      -0.03810690       0.02076720       0.00738670
H       17.41000000      13.94020000       6.49058000      -0.02191310      -0.01781280      -0.01599630
O        3.03832000      22.05913000      17.39478000      -0.04512070       0.01196830      -0.08199420
H        3.50332000      23.41863000      18.38208000       0.01707730       0.03076940       0.03848050
H        2.39362000      23.16052000      15.83838000       0.02111910      -0.04142060       0.04496760
O       21.72398000       3.91568000       7.88998000      -0.00568275       0.02713490       0.01810250
H       21.39848000       4.75647000       9.49068000       0.00423270       0.01546990      -0.00487005
H       21.40278000       2.29292000       8.52438000       0.00019722      -0.03914250      -0.01089700
O       14.97463000      15.90784000      15.64236000       0.02122270       0.02004000       0.00194881
H       16.57030000      16.86794000      15.38461000      -0.02039680      -0.00980360      -0.00384852
H       14.69124000      14.65994000      14.32942000       0.00760429      -0.00243245      -0.00699723
O        7.72936000       4.37762000      10.66802000       0.00643467      -0.00471446      -0.01578270
H        9.53446000       4.01552000      10.68672000      -0.00472045       0.00106144       0.00625584
H        6.85906000       3.34472000      11.88422000      -0.00345948       0.00019226       0.00628275
O       16.26370000      23.71516800       7.91710000      -0.04414300      -0.04002410      -0.04670200
H       15.51610000       0.17978300       6.42789000       0.01722690      -0.01145340       0.03278120
H       15.42180000      21.73247000       7.42828000       0.02752960       0.05022410       0.01938970
O       11.01694000      18.63108000      23.03718000       0.04527490      -0.07301600       0.00373596
H       11.62284000      16.73291000      22.55098000      -0.02755480       0.07423520       0.00820971
H       11.67184000      18.65557000       0.31666000      -0.01591170       0.00092113      -0.01577410
O        4.24767000      11.57322000      13.39472000      -0.01433710       0.01875790       0.03827830
H        5.01436000      10.82872000      14.88787000       0.00059145       0.01263170      -0.00897755
H        4.48728000      10.45522000      12.04552000       0.01519020      -0.02888390      -0.03282250
O       18.87870000      19.43890000      15.47780000       0.03002370       0.00214947      -0.08558610
H       20.16960000      19.34130000      13.89940000      -0.04512570       0.00122963       0.04613060
H       20.08220000      19.09170000      16.71880000       0.02449990      -0.00557809       0.03539600
O       10.34730000      18.20420000      14.24922000      -0.11503100       0.08419320       0.01951740
H       11.66980000      17.29820000      14.54401000       0.12814200      -0.08233570       0.02161130
H        9.72105000      18.49330000      16.03558000      -0.00657909      -0.00406279      -0.03535360
O        2.17328000       4.51306000       6.25418000      -0.02015330       0.02645740      -0.01566100
H        0.38168000       4.31166000       6.59718000      -0.00447388       0.01028740      -0.00015021
H        2.71688000       3.01676000       6.98088000       0.02156600      -0.03628700       0.02179820
O       20.12987000       7.38269000       4.12147000      -0.00015034       0.01505530      -0.05090680
H       20.37109000       6.26670000       5.43491000       0.00945625      -0.02687430       0.04905020
H       20.43661000       6.22150000       2.69907000      -0.01090570       0.01347880      -0.00415885
O       15.75550000      22.64214000      21.30740000       0.00172502      -0.01601810      -0.02227940
H       14.24350000      21.71964000      21.77870000       0.00688856      -0.00234327      -0.00672307
H       15.98590000      22.49364000      19.36430000      -0.01123320       0.01656200       0.03846660
O       19.95788000      19.36190000      22.92748000      -0.04500370       0.03994330       0.01776190
H       21.00519000      19.34370000      21.51448000       0.03107120      -0.00229200      -0.03284770
H       18.68495000      20.69380000      22.42488000       0.01341750      -0.02493270       0.01454990
O       10.20198000      17.45788000       3.73792000      -0.00502066       0.13347700       0.04014050
H        8.70528000      18.68358000       4.29581000       0.04288850      -0.05097670      -0.01848500
H        9.73278000      15.87608000       3.36109000      -0.03526670      -0.07855440      -0.01791200
O       23.12540000      19.21410000      18.83494000       0.05963290       0.07779850      -0.03396500
H       24.13440000      17.97630000      19.53294000       0.01097020      -0.05220300       0.02389950
H        0.36948000      20.39910000      18.39064000      -0.06629930      -0.02423500       0.00707671
O        2.68032000      18.45218000       1.89592000      -0.04443520       0.01058670      -0.07982030
H        2.21612000      16.74018000       1.42530000       0.00793068       0.00049177       0.00346827
H        3.46782000      18.34758000       3.37842000       0.04353890      -0.00672474       0.07885540
O        6.63599000      20.97994000       5.94128000       0.03531630       0.02531400      -0.00945685
H        6.72028000      20.01924000       7.51258000       0.00915642       0.00708160       0.00209925
H        8.10862000      22.24284000       5.89988000      -0.04223870      -0.02895760       0.00891294
O        4.89241000       4.57658000       2.06674000      -0.05030830      -0.02374300       0.02744690
H        4.42362000       3.35928000       0.76774100       0.00964322       0.00310812      -0.00418928
H        3.32305000       4.54338000       3.21767000       0.03544210       0.00752245      -0.01536770
O       14.23022000      12.90232000      11.53750000      -0.04105970      -0.05919870       0.03793130
H       14.47062000      10.93272000      12.04280000       0.01164130       0.07108820      -0.02475480
H       15.67658000      13.59052000      10.80450000       0.03070460      -0.00098579      -0.01999400
O       20.82736000       6.20547000      13.27120000      -0.03942500      -0.00856407      -0.03099870
H       22.32301000       7.08844000      12.87510000       0.02206050       0.02088600       0.00460471
H       20.96811000       5.01583000      14.59300000       0.00637671      -0.01224920       0.02197490
O       24.06650000      14.34152000      21.56992000      -0.01069490      -0.05729500      -0.03630540
H       23.91800000      12.83792000      20.23337000       0.01497980       0.04876580       0.03157480
H       22.68750000      13.82502000      22.66307000      -0.00144028       0.01331300      -0.00324393
O       23.46850000      10.09600000      18.36598000      -0.02316140      -0.00610861       0.10230100
H       21.96540000      10.25670000      19.72138000       0.03638020      -0.01141980      -0.04852600
H       22.84350000      10.59360000      16.82928000      -0.02252360       0.01224020      -0.05009280
O       14.88470000       2.93738000      23.54938000       0.00216758      -0.04912260       0.00065053
H       16.43450000       3.91168000      23.50758000       0.00192972      -0.00757580      -0.00377369
H       15.35810000       1.06868000      23.14648000      -0.00642514       0.05421200       0.00172848
O       12.87602000      13.75950000      19.34330000       0.05838030       0.02623360      -0.01560740
H       14.57980000      14.56790000      18.71520000      -0.06164040      -0.01617360      -0.00146831
H       13.50712000      13.12370000      20.90860000      -0.01080520      -0.01053840       0.02168130
