192
Lattice="24.3154 0.0 0.0 0.0 24.3154 0.0 0.0 0.0 24.3154" Properties=species:S:1:pos:R:3:force:R:3 TotEnergy=-1103.37411 cutoff=-1.0 nneightol=1.2 pbc="T T T"
O       22.43090000       2.22489000      18.48620000       0.00752972       0.01059790       0.00888880
H       23.36070000       2.48897000      20.03080000       0.00165612       0.00653738       0.00133326
H       22.05190000       0.48509100      18.66430000      -0.01041390      -0.01530090      -0.00803799
O        2.44560000      21.44310000       4.10585000      -0.07313080       0.03121520       0.03608070
H        3.93270000      21.17570000       4.92688000       0.06088410      -0.01679260       0.01525270
H        2.34870000      21.31330000       2.36453000       0.01337950      -0.00914908      -0.05261480
O       13.01380000      23.66943600      14.43490000       0.00575644      -0.04697840      -0.01130300
H       14.77040000      23.23144000      13.86160000      -0.03611280       0.00306897       0.01282340
H       12.06460000      21.89959000      14.71660000       0.03069570       0.04419760      -0.00751917
O       18.77429000      14.81757000       0.65287100      -0.00498745      -0.00636157       0.01462890
H       19.24439000      14.90018000      23.18233000      -0.00083427       0.02068150       0.00750914
H       18.34480000      16.33878000       1.64420000      -0.00024183      -0.01013360      -0.03690500
O        8.74780000       5.80390000      20.75660000       0.01694240       0.01536270       0.06278760
H        9.38226000       6.49980000      22.42680000      -0.01857410      -0.00640194      -0.03722850
H       10.22480000       6.00680000      19.73370000       0.00915599      -0.00681978      -0.01655810
O       21.27981000      12.14620000      12.43560000      -0.01477190      -0.00012724      -0.06460690
H       20.78822000      11.25520000      10.76800000      -0.00002143       0.00125239       0.04426190
H       22.11619000      13.56550000      11.60080000       0.01588850      -0.00169727       0.01540940
O       21.88770000       1.94740000      11.21940000       0.03471150       0.02294200      -0.04594190
H       23.57480000       3.03140000      11.25690000      -0.05896710      -0.04437710      -0.01229200
H       21.46080000       1.30140000       9.37141000       0.02855090       0.02255410       0.05764390
O       22.48215000      19.95170000      11.06910000      -0.01031720      -0.06798820       0.09549090
H       23.55555800      18.42140000      11.02260000      -0.00328339       0.01421480      -0.01492280
H       22.61159000      21.02910000       9.77569000       0.01511300       0.04793760      -0.08049730
O        4.51900000      13.76180000      19.28270000      -0.06911020       0.10747700      -0.08469370
H        5.67940000      13.83990000      20.52570000       0.06370930      -0.00718987       0.06363640
H        4.50320000      15.90170000      18.91730000      -0.00489698      -0.09470370       0.00895777
O        9.01647000      22.48230000      20.90010000       0.04298100      -0.04321930       0.08598810
H       10.92740000      22.55130000      21.26520000      -0.02460790       0.01161110      -0.03529600
H        9.00228000      21.27560000      22.59100000      -0.02587030       0.02887910      -0.06288880
O       12.49350000       2.58914000       5.33354000      -0.03116850      -0.10062900      -0.09044510
H       10.54330000       2.47954000       4.66942000       0.04149110      -0.00830496       0.01995220
H       12.46000000       3.85994000       6.35791000       0.00852348       0.10970500       0.08079700
O       12.97200000       7.14200000       0.83810000       0.01497920      -0.00729038      -0.02192980
H       13.65220000       6.02200000      23.85030000      -0.00810820      -0.03181850       0.01656360
H       13.50110000       8.56990000      24.16130000      -0.00541274       0.03508300       0.01267330
O       14.90230000      18.78060000       9.14340000       0.03813080       0.01207860      -0.01438750
H       15.67920000      17.24700000       8.37750000      -0.01122700       0.00066131       0.00724139
H       13.20410000      18.52300000       9.60010000      -0.03096100      -0.01146930       0.00358155
O        1.02390000      15.42710000      10.40590000       0.04215460      -0.03453220      -0.03627860
H        1.57330000      14.67160000       8.58690000      -0.02434610       0.02175490       0.07100500
H        2.35900000      14.69560000      11.60480000      -0.02781110       0.01150700      -0.02322430
O        0.42950800       2.68199000      23.68897500      -0.04401020      -0.04575450      -0.02820440
H        1.63185000       3.57534000       0.15563600       0.06156980       0.07942130       0.03266750
H        1.20737000       1.13916000      24.18058200      -0.01009430      -0.03468150      -0.01148330
O       22.54940000      22.74170000       6.68370000       0.10527300       0.04066680       0.00250323
H       24.10130000      22.91000000       5.37190000      -0.04636410      -0.01970670       0.04987500
H       21.24910000      22.27010000       5.71110000      -0.06844730      -0.02348280      -0.04595130
O       14.15240000      11.84560000      24.03080000       0.02756910       0.00582150       0.00673826
H       13.73130000      12.35000000      22.32600000      -0.00028607       0.00118209      -0.00131946
H       15.85360000      12.54500000       0.14210000      -0.02358090      -0.00206925      -0.01126430
O        6.09490000      13.37060000       4.82680000      -0.02530420       0.01677030      -0.02167440
H        7.14900000      13.58960000       6.25360000       0.00415259      -0.01056710       0.02019830
H        6.47090000      11.88740000       3.89540000       0.01648590      -0.00842773       0.00147993
O       17.61680000      20.03200000      13.06850000       0.10001100       0.00486110       0.00525861
H       19.71820000      19.99280000      12.47170000      -0.07650010       0.00485891       0.01268140
H       16.78530000      19.19250000      11.70730000      -0.01438450       0.00371442      -0.01985870
O        8.21470000       1.34850000       4.28737000      -0.07061230       0.00605262      -0.03861030
H        6.58850000       1.53410000       5.26974000       0.03988130       0.00323154      -0.01751490
H        7.58960000       1.57780000       2.17379000       0.01854420      -0.00616454       0.03646280
O        9.71830000      18.18650000       9.55260000       0.02754160       0.05907580      -0.02435960
H        9.19350000      16.55060000       9.52170000      -0.02375110      -0.06850380      -0.00173805
H        9.25780000      18.78540000      11.16080000      -0.00129376       0.01126220       0.02627730
O       13.02390000       6.77646000      12.09190000       0.07734660       0.05440110       0.05804340
H       11.93840000       5.73167000      11.16840000       0.00019816      -0.04428810       0.00021760
H       14.82453000       6.38014000      13.04580000      -0.06641600      -0.00913915      -0.05994040
O        7.25505000       1.71088000      23.92682100      -0.01931730       0.12057600       0.05828950
H        7.47098000       0.38279600      22.88607000       0.02211300      -0.06362760      -0.06507720
H        7.64276000       3.42307000      23.09993000      -0.00777446      -0.05349590       0.00808688
O       20.33010000       5.34995000      23.93260000      -0.01991930       0.00726423       0.04879340
H       19.55480000       5.63606000       1.47070000       0.04304610      -0.01773830      -0.06992600
H       21.92100000       4.30115000      23.81360000      -0.03118700       0.01399290       0.02277860
O       20.21418000      12.47220000       4.58210000      -0.00338350      -0.05788550       0.12757200
H       20.24098000      13.26700000       3.11490000       0.01423190       0.05339080      -0.09654440
H       21.78643000      12.40460000       5.54450000      -0.00005595       0.00271143      -0.02284960
O        7.99334000      13.13880000       9.75636000       0.03339890      -0.01043240       0.03204180
H        7.47355000      13.11690000      11.59760000       0.00193481      -0.00497265      -0.04074550
H        9.79368000      12.37160000       9.73010000      -0.03146530       0.01522040       0.00774280
O        5.54470000      20.10970000      17.64580000      -0.06063980      -0.04947740      -0.12068300
H        4.07100000      20.74630000      16.42140000       0.05081780      -0.01588200       0.05107860
H        5.76610000      21.15480000      18.95190000       0.01157560       0.06037190       0.06333760
O        8.44040000       9.20890000       1.35170000       0.02143250       0.00210209       0.00150732
H        9.98210000       8.12620000       1.59890000      -0.02443710       0.01359750      -0.00088397
H        6.92860000       8.37900000       1.87710000      -0.00066613      -0.01840560       0.00315265
O       12.02270000      11.61110000      19.14320000      -0.01900950      -0.17202400       0.10255700
H       12.13790000      12.62410000      17.89340000       0.01652610       0.10387300      -0.13230400
H       12.13800000       9.64200000      18.39460000       0.00213234       0.07029550       0.02959380
O        2.61984000      21.19380000      23.37470000      -0.00017944      -0.04077580      -0.02323590
H        1.24372000      20.55310000      22.06200000       0.04708860       0.01168110       0.03315030
H        4.16086000      19.97070000      23.57780000      -0.04523920       0.03151720      -0.01811840
O        1.11247000      12.06740000       6.23225000       0.02070300      -0.03390400      -0.02041350
H        1.50114000      10.21820000       6.02053000      -0.02152290       0.02502460       0.01822220
H        2.64278000      12.63890000       5.38538000      -0.00056180       0.01600860       0.00296930
O        2.18095000       3.58285000      15.43870000      -0.02069930       0.01454290       0.02213120
H        0.59374700       3.63978000      16.44200000       0.01042760      -0.01440740      -0.01770380
H        3.20025000       4.59113000      16.62690000       0.01086510      -0.00216240      -0.00150771
O       13.04490000       6.48330000      17.92900000       0.00551341       0.01054620       0.04225260
H       13.14690000       6.31290000      16.15170000       0.00639320      -0.01431460      -0.01136240
H       14.28330000       5.56060000      19.05030000      -0.02116010       0.00634047      -0.03191570
O        2.88721000       2.36240000       6.59950000      -0.00164235       0.02887550      -0.00368193
H        3.30157000       1.88300000       8.32440000       0.00704812      -0.01067030       0.00606900
H        2.68231000       1.01380000       5.43290000      -0.00342173      -0.01550040       0.00354507
O       12.33160000      14.63030000       3.52336000      -0.01086010      -0.00691712       0.01991570
H       12.40830000      13.12940000       2.43739000       0.00240855       0.01194660      -0.00018816
H       11.08640000      14.28460000       4.82434000       0.00431839       0.00073905      -0.01299760
O       22.29930000       8.51640000      15.56440000      -0.01697790       0.02479890       0.00236775
H       23.80000000       7.63210000      15.23400000       0.02283590      -0.00878679      -0.00921097
H       22.20310000       9.89930000      14.22920000       0.00099356      -0.01566080       0.01903410
O       10.24460000       2.09670000      10.93210000       0.01447180      -0.02930350      -0.00340593
H       10.93020000       1.94390000       9.22136000      -0.00677220      -0.00518900       0.01154890
H       11.18570000       0.73390000      11.96290000      -0.00860485       0.02926720      -0.00845790
O        4.48540000       6.75274000      18.74220000      -0.12076700       0.01541510      -0.09008810
H        3.31610000       7.41477000      19.90850000      -0.01052960       0.01087950       0.01469670
H        5.86580000       6.46740000      19.57120000       0.12053200      -0.02411450       0.06799820
O        2.65590000       7.90130000      12.23550000      -0.03225530       0.01179470      -0.07684750
H        2.75440000       6.33820000      13.12540000      -0.00269689      -0.01357430      -0.00640881
H        1.89240000       7.67980000      10.19860000       0.02863130       0.00173618       0.08006530
O       16.27540000      14.60050000       7.08320000       0.00383888       0.00535105      -0.02769620
H       18.17960000      14.05140000       6.56420000      -0.06738680       0.00983228      -0.01067060
H       14.90680000      15.08930000       5.68410000       0.05552780      -0.02686510       0.01914120
O        0.54530000      21.92064000      15.39880000      -0.01441430       0.09558130      -0.03640070
H        0.49360000      23.98471900      15.27890000       0.01237010      -0.07848350       0.01867370
H       23.95660000      21.72561000      13.76050000       0.00970096      -0.01819100       0.01445240
O       19.88080000       8.25686000       8.87460000      -0.01754360      -0.03227250       0.00765645
H       18.89970000       8.15489000       7.30840000       0.00314349       0.00406612       0.00995217
H       19.03980000       6.96993000      10.06270000       0.02030140       0.03855360      -0.01446080
O       12.57770000      14.77020000      14.66958000       0.07593510      -0.00223976       0.00571948
H       14.57992000      14.81140000      14.50590000      -0.05193110       0.01423300       0.01848730
H       12.46450000      13.28880000      13.67050000      -0.01832050      -0.01280190      -0.02126330
O        4.82290000       1.62380000      11.32840000       0.06669140      -0.02860800      -0.03750370
H        6.84580000       1.28310000      11.05810000      -0.06703310       0.02298720       0.01617090
H        4.55410000       2.41610000      12.90660000       0.00094888       0.00346087       0.01358430
O       15.59400000      22.30531000       5.40519000      -0.00640140      -0.01967330       0.01615420
H       14.55100000      23.84075000       5.35138000       0.00243886      -0.01031990       0.01161490
H       15.19650000      21.07554000       6.89958000       0.00300465       0.03395830      -0.02847130
O       13.91920000      22.36714000      21.87410000       0.04746540      -0.02249010      -0.01265270
H       15.42310000      21.52909000      20.90870000      -0.03989260       0.02981240       0.01416980
H       13.94750000      21.41528000      23.44130000       0.00086227      -0.00374709       0.00006994
O        4.38097000      12.57030000      13.71060000      -0.05667810      -0.07094870      -0.08836510
H        4.51856000      12.65490000      15.35915000       0.02400750       0.03229260       0.12500000
H        3.31020000      10.84180000      13.89980000       0.03686320       0.04592430      -0.03980680
O       18.03520000      15.50220000      15.21950000       0.02485990      -0.02862890      -0.03632760
H       17.98280000      17.15280000      14.30330000      -0.00019657      -0.00413249       0.01517700
H       19.05950000      14.34010000      14.04890000      -0.02624330       0.02269910       0.02610550
O       10.45170000      19.34150000      14.67670000      -0.09097930       0.07858340       0.01728770
H       11.12830000      17.79010000      14.98335000       0.02489160      -0.06360510       0.01305790
H        8.76693000      19.57980000      15.72859000       0.05201970      -0.00929504      -0.02492920
O        0.55970000       7.04830000       7.26230000       0.04036930      -0.06710550      -0.00280700
H       23.10930000       6.99360000       7.67050000      -0.01529210       0.00335582       0.00372663
H        1.22810000       5.11760000       7.06720000      -0.02206270       0.05766960       0.00320181
O       16.78261000       8.34875000       4.76057000      -0.04864820      -0.13385100       0.01619060
H       17.10251000       9.81153000       4.17382000       0.06201460       0.16878900      -0.02859270
H       15.74080000       8.10854000       3.26747000      -0.01850580      -0.04128920       0.00922058
O       18.27700000      21.60160000      18.73860000       0.00940682       0.02175670       0.08119460
H       19.92360000      21.13140000      19.41910000      -0.00842161      -0.00396095      -0.00428171
H       18.32180000      21.15270000      17.09920000      -0.00434883      -0.02165140      -0.07495000
O       23.32226000      19.73060000      19.53600000       0.00887533       0.04345450       0.00113066
H       23.07280000      18.03810000      19.98090000      -0.00565390      -0.03536460      -0.00949856
H       23.93987900      20.13090000      17.79710000      -0.00632814      -0.01085150       0.01897940
O       14.91840000      18.96480000       1.61490000       0.08195610       0.08849890      -0.01250530
H       15.28230000      20.61930000       2.76092000       0.00341643      -0.04166670      -0.02456760
H       13.60030000      18.50710000       2.54522000      -0.07959420      -0.04524460       0.04333160
O       21.01960000      14.51150000      19.87720000      -0.01276960      -0.03500910      -0.05379530
H       21.66830000      12.71640000      20.26830000      -0.02096620       0.04045470      -0.01115080
H       20.16760000      14.43730000      18.00630000       0.02621220       0.00713836       0.07249990
O        7.61630000      18.89400000      24.13639900      -0.01457890       0.02686920       0.02255190
H        8.02420000      17.30240000      23.48724100       0.00962096      -0.03548270      -0.01381670
H        7.66840000      18.77570000       1.64367000       0.00241665      -0.00106617       0.00137426
O        7.82931000      20.64430000       5.23060000      -0.04850660      -0.05117910      -0.00891467
H        8.96685000      20.18400000       6.47890000       0.02007430      -0.01807510       0.03599730
H        8.48685000      22.04620000       4.49760000       0.02258040       0.06399670      -0.02670930
O        3.89825000       6.30430000       1.96464000      -0.01226690      -0.01633620       0.03173360
H        2.97670000       5.82660000       3.54297000       0.01844470       0.01926500      -0.02994360
H        3.21560000       7.83690000       1.19780000      -0.00834488      -0.00602716      -0.00016862
O       12.95780000      11.75050000      10.15410000       0.00207641      -0.01502230      -0.01467400
H       13.02780000       9.78910000      10.62120000       0.01483400       0.05229940      -0.02604850
H       13.95720000      12.69880000       8.70341000      -0.00980585      -0.04841160       0.04546790
O       18.79187000       5.73605000      13.21470000       0.05527470      -0.03042900       0.01465290
H       19.95191000       6.43270000      14.79430000      -0.03426510      -0.02146090      -0.06617630
H       19.90045000       4.26414000      12.21610000      -0.03503520       0.04206300       0.04775840
O        2.53470000       9.60530000      22.87113000      -0.11533500      -0.15064100       0.05869100
H        3.29020000      10.90600000      22.37613000       0.09260990       0.16086000      -0.06268600
H        0.72060000       9.82120000      22.44320000       0.01640530      -0.00194101      -0.00017170
O       21.97340000       9.53251000      20.71190000       0.01483820       0.00099415      -0.01593430
H       21.17340000       8.18207000      21.67270000      -0.00114242      -0.00131989      -0.01087500
H       22.21900000       9.21535000      18.83860000      -0.01162970      -0.00861554       0.02891400
O       14.68910000       3.50970000      21.96590000      -0.01873830       0.03222120      -0.00952838
H       16.42920000       3.35630000      22.19980000       0.03288640      -0.00689934       0.00583619
H       13.95470000       1.88990000      22.16730000      -0.00387299      -0.02309200      -0.00229918
O        8.29090000      13.50890000      22.25370000       0.02696250       0.00020193      -0.05720350
H        9.30730000      12.64810000      20.54040000      -0.02401900       0.01508110       0.08149310
H        8.08580000      12.55430000      23.78680000       0.01507710      -0.01794020      -0.01303720
