192
TotEnergy=-1103.43532000 cutoff=-1.00000000 nneightol=1.20000000 pbc="T T T" Lattice="24.71479000       0.00000000       0.00000000      -0.00000100      24.71479000       0.00000000      -0.00000100      -0.00000100      24.71479000" Properties=species:S:1:pos:R:3:force:R:3:Z:I:1
O              25.46120000     -0.74368100    -37.63610000     -0.06699370      0.02912510     -0.09655260       8
H              23.68870000     -1.35294000    -37.60830000      0.02225930      0.00552840      0.00710946       1
H              26.17650000     -1.18296000    -36.19050000      0.03334890     -0.02832080      0.08424810       1
O              51.72600000     50.41320000      1.07308000      0.01842060      0.08098190      0.00391874       8
H              53.14490000     51.31410000      0.16642000     -0.01718620     -0.02980610      0.01303070       1
H              51.61540000     48.74170000      0.64454500      0.00463284     -0.05276900     -0.01730250       1
O              14.44230000      0.61880100     18.03870000      0.01805050     -0.02313330     -0.00162235       8
H              15.14310000      2.26900000     18.59400000     -0.01294720     -0.01037430      0.00178592       1
H              15.52120000     -0.75449200     18.64030000     -0.00919617      0.01357230     -0.00284039       1
O              -4.18707000    -10.36110000     -3.74803000     -0.00109719      0.09641790     -0.05253910       8
H              -3.10858000    -11.31040000     -2.77301000      0.04205730     -0.02294170      0.02898590       1
H              -3.12097000     -8.72663000     -4.37969000     -0.04203100     -0.06947160      0.02870230       1
O               8.46374000     34.81680000     19.55310000      0.00872487     -0.04448810     -0.06947120       8
H               8.31958000     33.31020000     18.25540000      0.00666253      0.04938870      0.05010530       1
H               7.64871000     34.27990000     21.00320000     -0.01875960     -0.01972770      0.03811480       1
O              -8.47015000     12.29200000      6.89893000     -0.02347820      0.08435340      0.00024970       8
H              -9.30766000     14.21750000      6.27902000      0.03309540     -0.06788280      0.02720990       1
H              -8.48364000     11.23000000      5.45365000     -0.00439245     -0.00994364     -0.01909840       1
O              43.97950000     30.32760000     13.79250000      0.00994187     -0.03015140      0.00100771       8
H              45.85070000     30.00630000     13.61500000     -0.03216440      0.00073412     -0.00186110       1
H              43.08650000     28.58980000     13.82090000      0.01991710      0.03266420     -0.00063037       1
O               1.16290000    -36.72640000      5.89749000     -0.00094113      0.04298310      0.09691940       8
H               1.61395000    -38.41830000      5.81476000      0.00955321     -0.04600520     -0.02851180       1
H               1.89154000    -36.46300000      7.83576000     -0.01623320      0.01321350     -0.05545420       1
O              32.93380000    -35.48150000     16.80340000      0.00150971     -0.04363440      0.01548020       8
H              32.07310000    -36.41360000     18.35850000      0.03650130      0.01922750     -0.06040900       1
H              33.97900000    -36.86680000     15.88670000     -0.03160350      0.04328300      0.03579210       1
O              11.20140000    -29.95930000    -25.89760000     -0.07035540     -0.02426960      0.00443072       8
H              12.86570000    -29.89980000    -25.37350000      0.04345700     -0.01075800      0.02424490       1
H              10.21830000    -31.21530000    -24.77890000      0.02165500      0.02800250     -0.02182930       1
O             -12.68420000      5.21773000      8.89669000      0.03062930      0.01954250      0.01320470       8
H             -11.31080000      6.05014000      9.85308000     -0.00352817      0.01374990     -0.02689900       1
H             -13.04560000      4.10309000     10.24640000     -0.03430130     -0.02704630      0.01502070       1
O             -10.82230000     29.08650000     49.69070000     -0.04357260     -0.02451470      0.02876500       8
H             -11.98600000     27.82440000     50.61350000      0.02816690      0.03311200     -0.03184660       1
H              -9.21193000     28.42390000     50.05660000      0.02471010     -0.01367100      0.00257402       1
O               9.34172000    -31.23400000    -17.43000000      0.00874247      0.00778648      0.07019920       8
H               9.18570000    -31.03800000    -19.18660000     -0.03626440     -0.01069200     -0.02078490       1
H               7.99338000    -30.92860000    -16.00580000      0.01892530     -0.00267957     -0.05191810       1
O              27.65580000     14.05620000     35.41480000     -0.14146800      0.06006710     -0.05359410       8
H              25.94000000     13.48150000     36.11680000      0.04149460      0.01291080      0.00524782       1
H              28.98000000     13.24510000     35.97190000      0.09370700     -0.07361710      0.04712170       1
O               3.04354000      3.42568000      5.66800000     -0.02510680      0.01397840     -0.02794910       8
H               4.22455000      2.73932000      6.75844000      0.02958830     -0.01875330      0.03789020       1
H               3.00847000      2.14565000      4.35977000     -0.00882980      0.00359944     -0.00905367       1
O             -34.77620000     25.47730000     33.76740000      0.09964210     -0.01470880     -0.01611070       8
H             -32.51750000     25.89640000     33.19070000     -0.08233270     -0.01520880     -0.00114122       1
H             -35.63170000     27.03090000     33.42850000     -0.00037363      0.01223810     -0.00489581       1
O             -33.61270000     12.98420000     23.44800000      0.04712580      0.01492090      0.00314576       8
H             -34.26040000     13.07740000     21.75290000     -0.00916728     -0.00122295     -0.00628777       1
H             -31.80090000     13.47200000     23.09560000     -0.02828400     -0.00620344      0.00118443       1
O             -21.84430000     64.27030000    -22.78590000     -0.04787970      0.01011290      0.03889520       8
H             -23.00770000     64.26760000    -20.97490000      0.05168210     -0.02160980     -0.07264810       1
H             -22.78880000     63.19480000    -24.04960000      0.01199460      0.01939900      0.02457610       1
O              69.79990000     21.99070000     36.83670000      0.06639330     -0.04198460      0.02040290       8
H              68.39970000     22.98300000     37.04740000     -0.04493110      0.04063990      0.01698990       1
H              70.37530000     21.44480000     38.59550000     -0.01619530     -0.00089366     -0.04385200       1
O              59.99120000    -13.29460000      1.92463000     -0.04339120     -0.03047700     -0.03968240       8
H              58.87080000    -14.50930000      0.78867300      0.01358070      0.01487270      0.05060070       1
H              60.87000000    -12.79150000      0.46938000      0.03716360      0.01766670     -0.01059750       1
O              30.10390000     19.41570000    -14.03260000      0.02746980      0.03843360      0.04840530       8
H              30.22650000     19.78890000    -12.11250000      0.00433552     -0.00702753     -0.04735970       1
H              29.08100000     17.99210000    -14.13030000     -0.02534440     -0.03379300     -0.00267974       1
O             -15.00270000      4.89134000     66.24560000     -0.04269650      0.05155790     -0.08570610       8
H             -13.58810000      4.46206000     67.07250000      0.06039650     -0.02659450      0.05802380       1
H             -16.59520000      4.41826000     66.83910000     -0.01860460     -0.02271560      0.02486130       1
O              10.60550000     -0.33896600      0.91015400      0.01322010      0.04381360     -0.06527560       8
H              10.27470000     -0.65889900      2.52934000     -0.01704510      0.00567978      0.10518400       1
H              10.52160000     -2.02604000      0.45577100      0.00413134     -0.04383310     -0.04210000       1
O              44.04480000      1.31243000     31.18570000      0.00197477      0.03537360      0.01630920       8
H              45.12730000      2.77253000     31.69860000     -0.01267930     -0.01505770     -0.00946995       1
H              45.19200000     -0.08669400     31.18560000      0.01158520     -0.01137070     -0.00179787       1
O              -3.20551000     62.71460000     33.26760000     -0.06474270     -0.01767250     -0.03018710       8
H              -5.15046000     62.14140000     33.04910000      0.06439830      0.01549000     -0.01342370       1
H              -2.06977000     62.27660000     31.75990000     -0.01977700      0.00486872      0.02970680       1
O               3.82908000     31.69460000     14.48980000      0.05990970      0.01442240     -0.01686150       8
H               5.31036000     32.48280000     13.36430000     -0.05538500     -0.01844520      0.03203640       1
H               2.58599000     30.92400000     13.39640000     -0.00413921      0.00089684     -0.00488130       1
O             -11.62120000     15.79820000     19.83010000     -0.09093120     -0.02696740     -0.01428160       8
H             -13.40150000     14.80880000     19.34680000      0.07413170      0.03391720      0.00602469       1
H             -12.45260000     17.24090000     20.63790000      0.01281420     -0.00851854      0.00218117       1
O              24.25740000     36.67380000     48.48940000      0.02641080      0.01857570     -0.08176440       8
H              23.92550000     35.57590000     49.74440000     -0.02020070     -0.04870440      0.06666830       1
H              24.73530000     35.47720000     47.09410000     -0.00459973      0.02029700      0.01516550       1
O               6.73256000     27.60410000     23.42730000      0.04018380     -0.02438620      0.05028110       8
H               6.37650000     27.62120000     21.72850000     -0.01248410      0.00340736     -0.05403230       1
H               8.20401000     26.38830000     23.61470000     -0.02900090      0.02177560      0.00492455       1
O               1.34459000    -26.78200000     17.03820000     -0.06527930     -0.01120730      0.06581420       8
H               1.09446000    -27.65900000     18.82800000      0.01318480      0.02732440     -0.05718340       1
H               2.96623000    -26.83910000     16.42440000      0.05038390     -0.01970450     -0.00030461       1
O               1.56221000     20.18660000      1.35938000      0.02334260     -0.03350490     -0.00789055       8
H               2.37100000     18.46670000      1.56203000     -0.01520660      0.02570930     -0.00665157       1
H               0.87728800     20.54450000      2.97403000     -0.00906048      0.00580663      0.01372050       1
O              -0.36997000      4.90736000     12.47050000      0.00262833     -0.08531100      0.01395610       8
H              -0.76541900      5.28157000     10.80240000     -0.01096170      0.03408570     -0.04801340       1
H              -0.36170100      2.96005000     12.06060000      0.01153430      0.04570280      0.02967500       1
O             -35.47870000     54.31510000    -29.69220000      0.02822860      0.03682110      0.03629850       8
H             -34.89680000     56.09580000    -30.02370000     -0.00849929     -0.01853080     -0.00006372       1
H             -35.16230000     54.13580000    -27.79800000     -0.01871400      0.00036896     -0.03445090       1
O               8.78058000     58.47440000    -18.09790000     -0.07746600     -0.03459760      0.04775350       8
H               9.91536000     57.22650000    -17.63830000      0.02311860     -0.03787970      0.01718880       1
H               9.69401000     59.45060000    -19.09480000      0.04998150      0.06846520     -0.06690890       1
O             -41.35320000     40.93800000      2.23381000     -0.02690430     -0.04222400     -0.02392510       8
H             -40.38750000     39.29970000      1.73388000     -0.03216280      0.03443170      0.02457580       1
H             -43.33120000     40.45830000      2.16829000      0.06139510      0.00855313     -0.00114927       1
O              15.45980000     34.74620000     18.63950000     -0.01125950     -0.00302646     -0.00477091       8
H              17.29850000     34.56640000     18.28300000     -0.01585140      0.01224940     -0.01189600       1
H              14.47330000     35.31530000     17.16120000      0.02286340     -0.01013830      0.01662530       1
O             -17.92580000    -14.28380000     11.44090000      0.01765130      0.06744430      0.15106700       8
H             -17.77350000    -15.26280000     10.08140000      0.03677780     -0.04870210     -0.07159660       1
H             -16.36080000    -14.09930000     12.91120000     -0.04744220     -0.02303110     -0.08177430       1
O             -44.42990000      3.41699000     18.35830000     -0.02279100      0.03592510     -0.06278470       8
H             -45.31760000      1.91679000     17.84030000      0.00145557     -0.00469426      0.00749089       1
H             -44.87530000      4.60266000     16.71850000      0.01090270     -0.02074820      0.04750860       1
O             -21.12060000    -16.37330000     28.95600000     -0.03057200     -0.00754867     -0.02155740       8
H             -19.79770000    -15.87070000     29.95540000      0.05026310      0.02890810      0.02641100       1
H             -21.17930000    -18.08660000     29.55150000     -0.01186680     -0.02182800     -0.00664385       1
O              15.76960000     18.02680000     25.96220000      0.00976918     -0.06817610     -0.05593250       8
H              15.42340000     17.81050000     27.71360000     -0.00422177      0.00015375      0.01809280       1
H              15.85230000     16.07670000     25.22630000     -0.00749308      0.07362200      0.02358580       1
O             -18.62050000     -0.03478200     33.03680000      0.09637890      0.08404830     -0.08754850       8
H             -16.98750000     -0.61938400     31.96090000     -0.04767280      0.01963280      0.03796940       1
H             -19.25300000     -1.35318000     33.80290000     -0.04760710     -0.09946730      0.05204260       1
O              40.26420000      8.75508000     35.64230000     -0.01208100      0.03776890     -0.02300680       8
H              41.80690000      8.12964000     36.41400000      0.00082138      0.00913476     -0.00328899       1
H              40.36540000     10.46960000     34.64590000      0.00867293     -0.05495010      0.02405090       1
O              -2.69483000    -30.93620000     -9.12312000     -0.06783650      0.04519230      0.00463747       8
H              -1.67583000    -29.90510000     -8.11950000      0.03919180     -0.01049490      0.01030060       1
H              -2.47512000    -32.46910000     -9.96159000      0.03193550     -0.03462180     -0.00799261       1
O              59.44430000    -23.29350000    -12.60260000      0.02115840      0.01900760      0.02447380       8
H              58.69230000    -22.36550000    -11.16480000     -0.00130960     -0.01961210     -0.02833190       1
H              58.38540000    -24.06310000    -13.84870000     -0.02091250      0.00735811      0.00748768       1
O               9.72614000     -2.40756000     19.24470000     -0.02327460     -0.01257590      0.00088291       8
H              10.93840000     -1.22183000     18.71080000      0.01985030      0.01412980     -0.00762651       1
H              10.58010000     -3.73836000     20.12760000      0.00098456      0.00447152      0.00718915       1
O             -31.00600000     -2.58900000     47.51090000     -0.02674890     -0.05631970     -0.03592830       8
H             -31.26970000     -3.54987000     45.84490000      0.00342502      0.02198620      0.02271040       1
H             -32.31170000     -3.57308000     48.45490000      0.02493300      0.01547550      0.00258713       1
O              11.33690000    -15.03740000    -10.52220000      0.00393817     -0.05308780     -0.02047150       8
H              10.76220000    -16.70190000     -9.82478000      0.00438792      0.02412430      0.00151749       1
H              12.38290000    -15.77250000    -11.97330000     -0.01093020      0.03117230      0.02545560       1
O              19.26390000     18.97110000      8.06478000      0.01325760     -0.00237712      0.01451840       8
H              19.92320000     20.06140000      9.48009000     -0.01368080     -0.02186130     -0.00824034       1
H              19.89630000     17.23500000      8.33527000     -0.00365934      0.02077830     -0.00174994       1
O              16.87810000     19.43340000     -6.29839000      0.07729820      0.07997880     -0.03160330       8
H              16.01280000     17.96880000     -6.11576000     -0.03067700     -0.06648530     -0.00015929       1
H              18.33370000     19.33210000     -7.57409000     -0.04018070     -0.01294700      0.03244570       1
O              23.00200000     46.91040000     30.65110000     -0.02238400     -0.02682240      0.05377800       8
H              21.54890000     45.64130000     30.72850000      0.03105590      0.01991690     -0.00284159       1
H              23.56020000     46.89320000     32.50680000     -0.00623715      0.00146838     -0.05116710       1
O              -8.24040000      9.32595000      2.13547000      0.00129671     -0.01782420     -0.01903850       8
H              -8.22943000     10.26660000      0.43960400     -0.01402140     -0.02353770      0.03458200       1
H              -8.95271000      7.56593000      2.01086000      0.00922899      0.04321300     -0.00754233       1
O              16.98630000    -23.80720000     13.67300000     -0.04158370     -0.02892960     -0.02798150       8
H              16.08850000    -24.34220000     11.93490000      0.00864248      0.02934530      0.05166900       1
H              15.69650000    -24.14690000     15.08880000      0.02196280      0.00885500     -0.02662630       1
O              -1.72216000     13.76070000     37.80110000     -0.03259430      0.02932730     -0.07296480       8
H              -2.40816000     12.39440000     38.61330000     -0.01189630     -0.04403400      0.04654160       1
H              -2.94099000     13.52290000     36.10160000      0.05710880      0.01723020      0.03715810       1
O              48.55450000     44.97420000     -3.48455000     -0.14477600      0.02825900     -0.05860420       8
H              49.50010000     44.57070000     -2.15162000      0.04487420     -0.01987120      0.08414230       1
H              46.46600000     45.17650000     -2.78551000      0.09932720     -0.00429962     -0.02232190       1
O              24.53560000      8.07755000    -29.53540000     -0.03814870      0.00277699      0.05309890       8
H              25.72380000      7.35619000    -30.51660000      0.05827120     -0.01284540     -0.06233600       1
H              24.37270000      6.60144000    -28.42300000     -0.02175160      0.01297640      0.01247270       1
O             -14.20550000     47.91810000      6.24887000      0.02643290     -0.02428340      0.01797890       8
H             -12.50030000     48.07250000      7.17391000     -0.03975680      0.00416878     -0.01772870       1
H             -14.79640000     46.13350000      6.57947000      0.01846410      0.02261070      0.00196960       1
O               6.31225000    -29.35220000     40.78450000     -0.00151338     -0.02520770     -0.00484336       8
H               6.46893000    -31.22070000     40.82340000      0.00403118      0.02825470      0.00631218       1
H               7.59936000    -28.59960000     41.90060000     -0.00155591     -0.00562512     -0.00660745       1
O              -1.60760000     30.38560000      7.37934000     -0.02826550     -0.00796343      0.03728870       8
H              -0.30732300     29.74680000      6.42307000      0.04911970     -0.03575030     -0.01827140       1
H              -1.96234000     31.76070000      6.31636000     -0.02248100      0.03178640     -0.01561460       1
O             -10.06080000     -7.35175000      6.14015000      0.10191700      0.03033330      0.02715890       8
H             -11.71250000     -7.18814000      6.59781000     -0.06519390      0.00810111      0.02423030       1
H              -8.90009000     -6.12485000      7.34649000     -0.03620030     -0.04987510     -0.04466430       1
O              -4.35688000      9.85932000     17.16680000      0.01490920     -0.05439030      0.00296716       8
H              -3.28210000      9.27758000     18.61190000     -0.00914239      0.01692360     -0.02375330       1
H              -4.44548000      8.19185000     16.21000000     -0.00614099      0.03451720      0.01250870       1
O              21.80170000    -16.28080000      3.34324000     -0.03250280      0.10220600      0.08021020       8
H              21.79250000    -17.47490000      2.16887000     -0.00519162     -0.06903910     -0.07367100       1
H              20.04550000    -15.48200000      3.50291000      0.03817000     -0.02854990     -0.01562190       1
O              23.18790000      5.00943000     48.53770000     -0.05043020     -0.05439900      0.02961210       8
H              21.61230000      3.59854000     49.16700000      0.05089950      0.04682090     -0.03162770       1
H              24.69990000      4.06482000     48.95060000     -0.00614162     -0.00156100      0.00389704       1
O              19.17240000     26.36490000     49.62330000      0.02268720      0.02655790      0.05536520       8
H              19.70240000     25.70000000     51.32550000     -0.01460480      0.01003290     -0.03498410       1
H              19.29320000     25.00990000     48.44550000     -0.00351283     -0.01936180     -0.00755250       1
O             -17.44900000      8.10908000     24.85860000      0.00924851      0.02284190     -0.01747150       8
H             -17.36200000      6.37684000     24.40570000     -0.00214193     -0.02094770      0.00001035       1
H             -18.81640000      8.39028000     25.99470000     -0.01248280     -0.00478679      0.01070860       1
