192
TotEnergy=-1102.59030000 cutoff=-1.00000000 nneightol=1.20000000 pbc="T T T" Lattice="24.28544000       0.00000000       0.00000000      -0.00000100      24.28544000       0.00000000      -0.00000100      -0.00000100      24.28544000" Properties=species:S:1:pos:R:3:force:R:3:Z:I:1
O               3.73693000     15.88890000     14.36070000     -0.06257500      0.02987110     -0.01587820       8
H               3.29655000     14.56570000     13.20740000      0.00681247     -0.00487142      0.00115754       1
H               2.16837000     17.08550000     14.05540000      0.05418680     -0.02605290      0.00500549       1
O               6.65806000      1.21624000      3.26358000     -0.08455080     -0.03026670      0.01785870       8
H               4.84843000      1.68358000      2.82185000      0.03444700     -0.02619080      0.02063180       1
H               7.29331000      2.49365000      2.32225000      0.04572400      0.05370140     -0.04149480       1
O              13.91340000      2.63002000     15.61980000     -0.13761000      0.08803690     -0.09170530       8
H              14.15540000      1.92697000     17.03350000      0.02987970     -0.07251310      0.15850200       1
H              15.31550000      2.35537000     14.77650000      0.09445840     -0.01582650     -0.06730510       1
O               2.31621000     -0.47079900      9.71255000      0.09425910      0.01663980      0.07461620       8
H               1.19944000      0.11964300      8.63987000     -0.07243130      0.04537750     -0.07626140       1
H               3.42066000      1.15279000     10.29760000     -0.01679570     -0.03686910     -0.00631424       1
O              14.11090000     22.24280000      6.74470000     -0.02921620      0.05234970     -0.05374450       8
H              14.52280000     22.26010000      4.75450000     -0.02203570      0.00724069      0.07503750       1
H              13.01640000     23.90290000      7.16395000      0.03336640     -0.07493360     -0.02505850       1
O              11.45120000     17.49600000      8.83054000     -0.00730936      0.02077440      0.06054510       8
H              11.81820000     19.15080000      8.05088000     -0.00045958     -0.01261050      0.01316410       1
H              11.00880000     17.71010000     10.77550000      0.01451800     -0.00547406     -0.06269780       1
O              16.31730000      9.33232000     11.39030000     -0.37350200      0.03851510     -0.00375061       8
H              17.75870000      9.09278000     11.21730000      0.35595600     -0.06214540     -0.03444340       1
H              15.57920000      8.63194000      9.72282000      0.01308430      0.02677950      0.03940700       1
O               9.44612000     16.10380000     21.20190000     -0.00734688      0.00605354     -0.01786300       8
H              10.89260000     17.01720000     20.57320000     -0.00464382      0.00081231     -0.00833814       1
H               9.61385000     16.29230000     23.00550000     -0.00023555     -0.00230854      0.01111070       1
O               6.42538000     16.77740000      7.59571000      0.01255420     -0.05496930      0.02697900       8
H               7.97764000     16.32570000      8.60144000     -0.02537810      0.03013260     -0.03102270       1
H               6.52761000     18.20750000      6.53674000      0.00832049      0.01628050     -0.00278393       1
O               8.41696000      5.18306000      0.39143100      0.06210610     -0.01888860      0.01927400       8
H              10.38380000      5.05183000      0.70293000     -0.05209540     -0.00658184     -0.01748840       1
H               8.21000000      6.87133000     -0.08137200     -0.01095260      0.02655850     -0.00832505       1
O               0.56074700     19.81480000     11.18950000     -0.02290860     -0.09262220     -0.07318410       8
H               0.45461700     18.55890000      9.30530000      0.00923813      0.06209790      0.09363790       1
H               0.62200100     21.53440000     10.56780000      0.01418370      0.00223843     -0.00085421       1
O              23.79840000     10.30750000     -0.22930700      0.10798000     -0.06200770     -0.05414070       8
H              25.56920000     11.01650000      0.26285800     -0.02501510     -0.02704460     -0.02487110       1
H              22.86540000     11.28820000      0.70368900     -0.08580040      0.06973370      0.07286170       1
O               7.39881000     20.48950000      1.17922000      0.03457520      0.05601350      0.03343460       8
H               7.03457000     22.06650000      2.29160000      0.00628891     -0.03773040     -0.02976950       1
H               9.13632000     20.93530000      0.57969300     -0.03570770     -0.00342087     -0.00235365       1
O               0.58059100      1.31450000      1.75126000      0.01435420      0.03031850     -0.03971730       8
H               1.14010000      2.59809000      0.46331900     -0.00807110     -0.02493070      0.01667870       1
H               1.09856000      2.13796000      3.26014000     -0.00775654      0.01096560      0.02543270       1
O              20.40080000      3.15025000     22.51750000      0.05697230      0.06500170      0.15058300       8
H              21.13320000      2.28142000     24.01450000     -0.00460346     -0.01293260     -0.00774845       1
H              21.53030000      4.56941000     22.24770000      0.00223871      0.00191194     -0.00821173       1
O              12.58160000     18.85340000     17.31180000      0.04271880     -0.01801040     -0.04200290       8
H              14.24860000     18.05700000     16.70470000     -0.04955370      0.02832440      0.01657450       1
H              11.61380000     19.11140000     15.71400000      0.01077970     -0.00968767      0.02849460       1
O              14.51540000      8.69309000      6.18088000      0.03759100      0.09467040     -0.01840770       8
H              14.34360000      7.04826000      6.42940000     -0.02085640     -0.10379700      0.01624210       1
H              16.09600000      8.76342000      5.14997000     -0.03357040      0.01230650      0.01269190       1
O              12.04590000     13.45670000      5.81648000     -0.01247950     -0.02734870      0.03540180       8
H              11.86120000     11.64580000      6.52628000      0.01967590      0.05540510     -0.01767970       1
H              12.11110000     14.75220000      7.24233000     -0.00353960     -0.02757930     -0.02246910       1
O              19.20260000      5.39311000      5.10852000     -0.05823670     -0.02464830      0.02900910       8
H              17.77210000      4.64405000      6.27125000      0.05124170      0.02166870     -0.04394450       1
H              18.13930000      6.08958000      3.77562000      0.01464060      0.00237953      0.00650459       1
O              13.05080000      3.44423000     23.57290000      0.08853060      0.03053450      0.04114580       8
H              14.75990000      3.42194000     24.74140000     -0.07780520     -0.01260290     -0.04115130       1
H              13.75930000      4.70874000     22.37910000     -0.01303100     -0.01371230      0.00040926       1
O               1.74764000      0.88054100     19.91170000     -0.03851320     -0.01774140     -0.01549650       8
H               1.08522000     -0.57426200     18.60010000      0.01888230      0.03041810      0.02234150       1
H               0.33484600      1.44429000     20.97240000      0.02043490     -0.01800190     -0.01882410       1
O              10.54000000     22.00170000     21.13080000     -0.03183180     -0.03640140      0.05424570       8
H               9.86636000     23.46810000     20.53980000     -0.04035930      0.05221680     -0.00656130       1
H              11.93530000     21.95180000     20.17370000      0.07300920     -0.02100910     -0.04786350       1
O               4.08323000     11.99710000     -0.00105000      0.02690920      0.01516960      0.03671160       8
H               5.36235000     12.07590000      1.43758000     -0.01723470     -0.01611530     -0.02452770       1
H               3.42767000     13.62090000      0.44521500     -0.00852969      0.01432620     -0.01055650       1
O              21.10840000     18.76750000     16.48100000      0.00750298      0.04045530      0.05035690       8
H              22.59340000     19.91350000     16.10480000     -0.01562190     -0.01457870      0.00600067       1
H              20.67940000     19.63230000     18.23350000      0.00048254     -0.02868190     -0.05045810       1
O              20.63660000     13.12400000      2.44318000     -0.03596170      0.00191767     -0.04596160       8
H              19.45910000     14.33490000      1.72156000      0.00598017     -0.00655054     -0.00586890       1
H              21.39740000     14.13610000      3.62761000      0.02256830      0.01789150      0.05302800       1
O               1.22966000      5.43911000     22.83850000      0.08620170     -0.05100680      0.23422400       8
H               0.46518000      5.94043000     21.59510000     -0.09803930      0.07962290     -0.21464100       1
H               0.75713600      6.82999000     24.03790000      0.01340130     -0.01725790     -0.01211470       1
O               6.69731000      1.46960000     21.22210000      0.09756570     -0.05399240      0.01008810       8
H               7.44001000      2.63960000     22.36210000      0.01814090      0.01124290      0.01231480       1
H               5.32895000      2.28003000     20.78700000     -0.11945200      0.04757990     -0.02778480       1
O               9.06467000     16.80680000     14.06330000     -0.04467530     -0.00791729      0.01684320       8
H               7.14710000     16.64360000     14.05990000      0.03852010      0.01290310     -0.01428640       1
H               9.40298000     15.40830000     15.26280000      0.01105680      0.01064340     -0.02556600       1
O               2.01617000      5.84543000     18.06810000     -0.06598060     -0.00246907      0.03203310       8
H               3.32556000      5.80648000     16.99230000      0.06024630      0.00299751     -0.04711150       1
H               1.30688000      4.16016000     17.94220000      0.00575123     -0.00299305      0.00296107       1
O               4.78980000      7.98097000      6.96036000      0.04425030      0.07390120      0.00220710       8
H               5.59364000      9.75241000      6.30288000     -0.03892160     -0.06829730      0.01434910       1
H               4.97175000      8.27472000      8.81330000     -0.00527700     -0.00630030     -0.01996080       1
O              19.48680000     10.45400000     20.61510000     -0.11930600     -0.00468592     -0.10151000       8
H              20.79200000     10.60780000     21.56740000      0.12455100      0.01022140      0.09028070       1
H              19.77090000     11.66900000     19.19290000     -0.00162906     -0.01715040      0.01621250       1
O              12.54400000      7.76437000     15.27450000      0.03567360      0.13581500     -0.01506500       8
H              12.68220000      6.17540000     14.73720000     -0.00103252     -0.10139300     -0.01875360       1
H              14.03220000      8.53298000     14.16590000     -0.04325500     -0.01517880      0.03230610       1
O               9.65089000      1.52790000      7.40274000      0.00949269     -0.00107927      0.00890911       8
H               8.43067000      1.53631000      8.76353000      0.00078472      0.00438037      0.00179788       1
H               8.78215000      2.38923000      6.07437000     -0.00799714     -0.00439550     -0.00464252       1
O              20.77040000      5.73035000     10.42980000      0.02698630      0.06254270     -0.02901590       8
H              21.66320000      7.29794000     11.12080000     -0.01992740     -0.04555380     -0.01690840       1
H              20.79670000      6.05836000      8.53015000      0.00326936     -0.01158670      0.04057250       1
O              14.36640000      3.69314000      6.87863000      0.03526600     -0.02508840      0.02629420       8
H              15.52610000      2.68562000      8.00021000     -0.02496390      0.01886260     -0.01573980       1
H              12.89470000      2.62133000      6.77820000     -0.01192800      0.01117950      0.00245240       1
O              14.69510000     22.75840000      0.48431700     -0.00411838      0.06703920      0.08227850       8
H              13.85490000     22.10090000     -0.80581400     -0.05226370     -0.03434020     -0.07274830       1
H              16.19000000     21.94420000      0.54599800      0.06165940     -0.03135690      0.00105476       1
O               4.57194000      9.70223000     11.81000000      0.02718650      0.03486600      0.05357880       8
H               3.57763000      8.93225000     13.20510000      0.01024910      0.02090120     -0.02032280       1
H               5.86216000     10.92350000     12.80020000     -0.02868900     -0.04569170     -0.02788410       1
O               6.52423000     12.43390000      4.38379000     -0.00252577      0.01170090      0.02207370       8
H               6.56402000     13.95040000      5.48982000     -0.00062353      0.00454787     -0.01119370       1
H               8.17940000     11.82140000      4.70635000      0.01819230     -0.00418743     -0.00581341       1
O              21.26980000     13.86280000      7.68840000      0.05770790     -0.01666450     -0.01541590       8
H              20.91410000     15.00300000      9.13610000      0.01258270     -0.01625270     -0.00786971       1
H              23.33930000     13.25900000      7.57809000     -0.07224610      0.03339300      0.02467810       1
O              18.01860000      2.00496000     12.72470000      0.07958520      0.03500480      0.00169962       8
H              18.55770000      1.97404000     14.65110000     -0.00339518     -0.02471230     -0.03139600       1
H              19.66880000      2.95788000     11.92070000     -0.06987370     -0.03189620      0.02946370       1
O              18.05720000     21.25760000     10.09710000     -0.03621820     -0.00323910      0.01475450       8
H              18.15000000     22.79510000     11.10950000      0.00766664      0.00113342      0.00180142       1
H              16.24900000     20.80570000     10.32180000      0.02839150      0.01168300     -0.01354170       1
O               1.05307000     21.62790000     16.65500000      0.02547290     -0.06992970     -0.02426660       8
H               1.15188000     21.40430000     14.74280000      0.00409935      0.01390090      0.04468040       1
H               2.60461000     19.19140000     17.69600000      0.00652143      0.05431050     -0.00439152       1
O              11.02210000     16.65260000      1.49600000      0.00592838     -0.00708164      0.07173710       8
H              10.35200000     18.15180000      2.46080000      0.00799697     -0.03163920     -0.02208120       1
H              11.31890000     15.33590000      2.93373000     -0.00709458      0.02961120     -0.03612570       1
O              16.18640000     13.93700000     14.13390000     -0.02853340     -0.03192810     -0.01703980       8
H              17.61560000     14.96660000     14.29430000      0.02119770      0.02521740     -0.00973565       1
H              16.57970000     13.09110000     12.50850000     -0.01672350      0.00666152      0.02086120       1
O              21.47430000     19.13450000      6.16045000      0.01466860      0.01668080     -0.03151460       8
H              20.58270000     19.23220000      7.68476000     -0.01744580      0.01075320      0.02640620       1
H              21.77550000     17.39790000      5.94041000     -0.00056192     -0.02782710      0.00580084       1
O               3.24918000     18.18850000     24.03140000      0.01826020      0.01083890     -0.04230770       8
H               4.06194000     20.03560000     23.85480000     -0.01924880     -0.07702320     -0.00146845       1
H               3.65824000     16.99770000     22.54030000     -0.00832917      0.05270390      0.04132340       1
O              20.43810000     13.58220000     16.41610000     -0.04266440     -0.01078110      0.03309480       8
H              19.81660000     15.08120000     17.44470000      0.01919070     -0.02840990     -0.02857030       1
H              18.86970000     12.49330000     16.04380000      0.03860470      0.03442270      0.00479914       1
O               6.96877000      2.39477000     15.96810000      0.11331600     -0.01474900     -0.03281500       8
H               6.71705000      1.93830000     17.77220000     -0.01066680      0.01601850      0.00445164       1
H               8.97869000      1.90877000     15.85220000     -0.07207300      0.01521730      0.00064559       1
O              17.23320000      9.47574000      1.98729000      0.07105160      0.02959260      0.24630400       8
H              18.17580000     11.04530000      2.29398000     -0.00229364     -0.01974050     -0.00229174       1
H              16.84730000      9.32642000      0.51174300     -0.06543620     -0.02006200     -0.24968300       1
O              15.04680000     13.86560000     19.19560000     -0.01891280     -0.10759200     -0.04461250       8
H              14.63990000     11.71530000     19.01180000      0.01848880      0.10113100      0.01815090       1
H              15.12620000     14.14970000     17.32500000     -0.00414109     -0.00068409      0.02182920       1
O               5.41564000      3.20304000     11.07520000      0.02124930      0.01924350      0.04071660       8
H               6.98787000      3.75327000     14.02480000     -0.04690210     -0.03483960     -0.00818610       1
H               4.45512000      4.75058000     11.18990000      0.00497043     -0.00569232     -0.00630071       1
O              15.91610000     17.41680000     22.64530000     -0.04128470     -0.05500890      0.01041170       8
H              14.94840000     16.85180000     24.19660000      0.01577180      0.01817040     -0.03369390       1
H              15.34010000     16.05250000     21.29420000      0.02128240      0.03606460      0.03391160       1
O               4.87939000     18.27890000     18.42230000      0.04886880     -0.02824710      0.03442630       8
H               5.39217000     16.80780000     17.34640000     -0.01755160      0.02854190      0.01352360       1
H               6.36514000     18.27950000     19.94900000     -0.05293640      0.00581732     -0.05297040       1
O              19.15270000     20.91560000     21.20610000     -0.07213020     -0.06727550     -0.00363525       8
H              20.11380000     21.76180000     22.34990000      0.04240750      0.02479810      0.04404970       1
H              17.95030000     19.70380000     22.31830000      0.03862400      0.03174030     -0.04812340       1
O               0.96566700      4.93236000      5.76665000      0.03770120      0.04238320     -0.00179382       8
H               2.64686000      5.64399000      6.47101000     -0.03402450     -0.02051220     -0.01345150       1
H               0.54235200      6.51909000      4.87289000     -0.00529731     -0.02590930      0.01022050       1
O              19.01200000      0.60669100     17.47240000     -0.00388395      0.06334590      0.00369889       8
H              19.99570000      2.30384000     21.14130000     -0.03594480     -0.08836570     -0.14020800       1
H              19.34220000     -0.84805300     18.36770000      0.00277731     -0.03742350      0.00961356       1
O               0.97262000     10.59960000     15.64180000      0.00049872     -0.01431190     -0.00064236       8
H               0.20534400     12.26020000     15.67770000     -0.01052570     -0.01925320      0.00822814       1
H              -0.00885200      9.20359000     16.39120000      0.00841786      0.03103390     -0.00430425       1
O               2.45105000     18.95760000      4.84976000      0.01487690      0.00458615      0.01953350       8
H               0.76143700     19.33330000      5.29972000     -0.01310620      0.00622598      0.00230115       1
H               2.44492000     18.09630000      3.29561000     -0.00066502     -0.00407463     -0.02478580       1
O               8.86984000     12.01310000     14.68220000      0.02614250     -0.09373070      0.04276340       8
H              10.26390000      9.84395000     14.95530000     -0.03425980      0.06478700     -0.01383370       1
H               8.05809000     11.83820000     16.40850000      0.01168750     -0.00180162     -0.02953360       1
O               7.39378000     11.45340000     19.82300000      0.01388560     -0.00131913     -0.01142550       8
H               6.38297000     12.92980000     19.72930000     -0.01841850      0.00317015      0.00772121       1
H               8.99320000     12.31060000     20.00380000      0.00424451     -0.00364317      0.00721929       1
O              21.97330000     21.89020000      1.21912000     -0.17256100     -0.17399000     -0.05217610       8
H              21.67270000     20.16240000      2.18100000      0.01852750      0.07623330     -0.02783880       1
H              23.14420000     22.78650000      1.80095000      0.14496500      0.09626820      0.07861470       1
O              16.90110000      5.69974000     20.60330000      0.02553180      0.10021300     -0.01165310       8
H              17.97230000      7.69926000     20.57590000     -0.03922410     -0.07319150     -0.00093312       1
H              17.70470000      4.83956000     21.93570000     -0.00398211      0.00135544      0.00728800       1
O              19.41050000     16.57810000     11.65590000      0.05425870      0.02140920      0.06268250       8
H              18.27410000     17.84770000     11.12280000     -0.00503137      0.01754230     -0.00626613       1
H              20.41180000     17.57390000     13.17170000     -0.03421380     -0.03317500     -0.05352670       1
O               1.80563000     13.76250000      8.42936000      0.09150830     -0.01137800     -0.04001160       8
H               2.62392000     12.81850000      9.90098000     -0.01522940      0.01142070     -0.04361060       1
H               3.51516000     13.99980000      6.81102000     -0.07868120     -0.00554851      0.08524790       1
