192
TotEnergy=-1102.65553000 cutoff=-1.00000000 nneightol=1.20000000 pbc="T T T" Lattice="24.16827000       0.00000000       0.00000000      -0.00000100      24.16827000       0.00000000      -0.00000100      -0.00000100      24.16827000" Properties=species:S:1:pos:R:3:force:R:3:Z:I:1
O              13.30890000     18.48440000     18.03000000      0.00362450      0.02546630     -0.01954850       8
H              13.83540000     18.35710000     16.23230000      0.00542462      0.00812454      0.03325740       1
H              13.70980000     20.22100000     18.64720000     -0.00022728     -0.02993340     -0.01538260       1
O               3.03634000     12.13220000      5.66677000      0.04737960     -0.00678348     -0.00093741       8
H               4.52470000     10.99560000      5.61279000     -0.02400880      0.00376132      0.00045090       1
H               3.82352000     13.51170000      4.71498000     -0.01858190      0.00003102     -0.00286934       1
O              12.70060000      1.44436000      8.34948000      0.00971941     -0.04116040      0.00492366       8
H              11.87050000      0.85254100      6.84030000      0.00048800      0.00872109     -0.00373232       1
H              11.93090000      2.88996000      9.08595000     -0.01416890      0.01227100      0.00005955       1
O               1.55885000      5.82316000      1.58657000     -0.06446000     -0.00499524      0.05823130       8
H               3.05875000      5.52203000      2.94482000     -0.02787720      0.03039190     -0.00770240       1
H              -0.20873600      5.36190000      3.01641000      0.04588610     -0.07250830      0.01350580       1
O               4.78943000     14.61920000      0.23404800      0.01213470     -0.00873063     -0.00549986       8
H               3.95273000     13.18150000     -0.79521000      0.00396949     -0.00392945      0.01985840       1
H               3.55404000     15.90320000      0.35907900     -0.01593130      0.01169990      0.00031485       1
O              10.06760000      5.29632000     10.87040000      0.00513563     -0.01123890      0.01565890       8
H               8.27954000      5.57405000     10.64760000     -0.00563727      0.00735604     -0.00497695       1
H              10.09990000      4.26906000     12.44480000      0.00496816      0.00712603     -0.01525980       1
O               4.76250000      3.43821000     22.81140000     -0.05897280     -0.11428800     -0.02364600       8
H               5.48405000      4.87534000     23.10030000      0.07766060      0.13276700      0.01553510       1
H               3.13093000      3.60394000     23.56280000     -0.00661744      0.01368110     -0.00439882       1
O              11.84840000     13.23970000      8.63987000     -0.01266700      0.04658040     -0.02598640       8
H              12.22710000     14.76400000      7.53488000     -0.00556313     -0.03263110      0.02404110       1
H              10.08670000     13.51630000      9.18948000      0.01736840     -0.00888884      0.00211138       1
O               1.20718000     18.39000000      1.55118000     -0.00109208     -0.01739770      0.03721320       8
H               1.25347000     17.80040000      3.36963000      0.00265983      0.02517040     -0.04416340       1
H               2.14346000     19.93220000      1.32224000     -0.00044573     -0.00232660      0.01132710       1
O               4.93003000      5.84314000     10.66900000     -0.00043140      0.08732190     -0.06646860       8
H               4.77010000      4.50421000     11.67330000     -0.02380880     -0.07290990      0.05801270       1
H               3.61502000      7.15322000     10.94950000      0.01938850     -0.01359980      0.00422976       1
O               1.73191000     23.78340000     23.50760000     -0.03445110      0.08193340      0.10967300       8
H               2.10760000     22.82880000     22.24990000      0.02423400     -0.10729900     -0.12068500       1
H               2.97942000     25.03540000     23.24810000      0.01509640     -0.00271060      0.00709219       1
O              20.07010000     12.34730000      3.90844000      0.00661578     -0.02820580     -0.04102450       8
H              21.26510000     12.13490000      2.44452000     -0.01421760      0.02019980      0.01145590       1
H              18.45570000     11.93480000      3.02054000      0.01147050      0.01469670      0.02693160       1
O              19.20700000     20.66680000      2.64858000      0.01023870      0.03452750      0.02749310       8
H              17.72350000     20.44880000      3.80640000      0.02921730      0.00587130     -0.01715900       1
H              20.27800000     22.17450000      3.20531000     -0.04022010     -0.04568960     -0.00945854       1
O               3.92453000      1.70119000     13.53110000     -0.02349760      0.04576470     -0.00117850       8
H               2.25457000      1.44331000     12.77570000     -0.01193720      0.00829163      0.01080590       1
H               4.72184000      0.19857600     13.16990000      0.02766920     -0.05855220     -0.00766647       1
O              21.37360000     18.88970000     22.02480000      0.00717007      0.02961940      0.01598860       8
H              20.95540000     19.63060000     23.73580000      0.00675518     -0.01551520     -0.03381620       1
H              22.85490000     19.84650000     21.37610000     -0.01901140     -0.02203960      0.01518270       1
O               7.66757000      0.44776500      1.95899000      0.00236978      0.01197650     -0.02637140       8
H               6.63698000      1.81776000      2.46524000     -0.00777320      0.00506462      0.01649830       1
H               7.76286000      0.97111200      0.16015900      0.00993808     -0.02320060      0.01509210       1
O              15.67840000      6.23952000      4.25461000      0.01200770      0.04088140      0.03447730       8
H              17.41250000      6.48600000      4.95385000     -0.02587220     -0.01503460     -0.00735433       1
H              14.56730000      7.10031000      5.58323000      0.01520380     -0.01353520     -0.02627550       1
O              23.77150000      1.53044000      4.96145000      0.06657790     -0.02280320      0.01277460       8
H              22.42390000      1.24209000      3.90923000     -0.04733670      0.00472812     -0.03239050       1
H              24.92690000      0.26412100      4.20059000     -0.00874867      0.01826880      0.01773480       1
O              13.96570000     18.05310000      5.32195000     -0.02346260      0.01394130      0.06120280       8
H              13.11590000     19.71440000      5.42804000      0.01232530     -0.01701360     -0.02185550       1
H              14.60080000     18.01670000      7.40111000      0.01915210      0.00210999     -0.04641750       1
O               9.64725000     12.20330000     23.12020000      0.03907570      0.04375850     -0.00221299       8
H               9.99195000     13.71840000     24.13050000     -0.01813910     -0.01946030      0.00137680       1
H              10.85500000     12.71260000     21.76820000     -0.03058220     -0.01904220      0.01149010       1
O              17.05140000     15.90330000     14.57850000     -0.03560880      0.00115924     -0.03081340       8
H              18.23430000     15.17990000     15.70680000      0.00774504     -0.01194460     -0.00347811       1
H              16.61990000     14.85940000     13.06940000      0.01653560      0.00944408      0.03460230       1
O               7.81711000     16.88250000      3.88306000      0.03407490      0.02017140     -0.01442540       8
H               7.23998000     16.22360000      2.16921000      0.01081970      0.01350200      0.02605400       1
H               9.39005000     18.02930000      3.88905000     -0.04236560     -0.03804520     -0.02007500       1
O               2.47516000     19.97550000     19.83610000      0.00609302     -0.02322380     -0.01570890       8
H               2.08513000     19.88600000     17.98300000      0.00052158     -0.00418651      0.02240640       1
H               3.13864000     18.27630000     20.28710000     -0.01162010      0.02914520     -0.00842610       1
O              12.70950000     22.80580000      3.34090000     -0.02207080      0.02185510     -0.00953959       8
H              11.16360000     23.12640000      2.31221000      0.02790350     -0.00061245      0.01945660       1
H              13.89110000     24.26050000      3.04991000     -0.01280080     -0.02280830     -0.00427305       1
O              16.33750000     10.87250000     11.43110000     -0.00672655     -0.01398860     -0.00873441       8
H              14.79390000      9.94854000     10.81010000      0.03262950      0.01925410      0.00744388       1
H              16.97720000      9.99209000     12.92920000     -0.01632030      0.00815670     -0.01254510       1
O              16.79410000     18.50010000      8.87512000      0.00645375      0.00610793      0.05589260       8
H              24.13220000     14.07900000      9.43715000     -0.01895520      0.00148995      0.00467029       1
H              17.25620000     18.92640000     10.73650000     -0.01053080     -0.00524662     -0.04507700       1
O               2.21862000     10.73480000     23.05820000      0.00976519     -0.02041020     -0.01174870       8
H               2.99882000      9.36220000     22.00650000     -0.02362530      0.03575760      0.01589890       1
H              -0.43147600      6.71938000     26.28390000      0.05145870      0.05723220     -0.04448630       1
O              14.92240000     13.43820000      3.31437000     -0.01972430      0.02408000      0.02011410       8
H              14.53010000     15.18470000      4.00379000      0.01489090     -0.01773180     -0.01349700       1
H              13.49980000     12.53330000      4.01104000      0.00803158     -0.00559673     -0.00924557       1
O               0.32496700     19.27310000     14.95170000      0.00825456      0.00128953     -0.02324730       8
H               1.22589000     19.37120000     13.32380000     -0.00627746      0.00100447      0.02627740       1
H              -0.98416800     18.02830000     14.58790000      0.00825886      0.00599343      0.00508609       1
O              13.38840000      0.34843000     18.45100000      0.03268390      0.03629100     -0.04336730       8
H              14.74540000      1.55049000     18.93560000     -0.02091830     -0.02178500      0.01161620       1
H              13.58610000      0.85807000     16.61420000     -0.01042910     -0.01429930      0.02907180       1
O               8.29318000      7.48048000     21.95830000     -0.02223260      0.00461342     -0.00352936       8
H               7.91375000      9.26788000     22.19230000      0.00577993     -0.01065060      0.00661551       1
H               8.62246000      7.31401000     20.13670000      0.00394154     -0.00204665      0.01729790       1
O               3.66269000      4.76989000     17.72940000     -0.00021303     -0.01037730     -0.02069550       8
H               3.86284000      3.84085000     16.08370000     -0.00420109      0.00079476      0.04183060       1
H               4.42218000      3.99724000     19.21660000     -0.00482263      0.00044778     -0.01848600       1
O               8.82654000     21.76800000     15.94060000      0.06170840      0.00708660      0.02911620       8
H               9.98497000     21.01870000     14.72920000     -0.01184110      0.00441789      0.00750475       1
H              10.00320000     22.06160000     17.36430000     -0.02324160     -0.01407250     -0.00311203       1
O              21.61830000     13.27510000     23.03610000      0.05231390      0.02230660     -0.00698044       8
H              23.61140000     12.68080000     22.88250000     -0.05396950      0.00488555     -0.00262800       1
H              21.53070000     15.18760000     22.74520000      0.01122660     -0.03950530      0.00715323       1
O              12.55990000      8.45543000      7.74074000      0.00507266     -0.00261323     -0.00803063       8
H              11.69710000      7.25756000      8.89479000     -0.00131603      0.02729670     -0.00778015       1
H              12.00660000     10.26300000      7.55887000     -0.00032662     -0.02806390      0.02036090       1
O               8.70990000      2.43293000     14.76930000     -0.00263065      0.01219310      0.00858348       8
H               9.09930000      0.68356500     15.35190000     -0.02112580      0.01799320     -0.01278400       1
H               6.87745000      2.72796000     14.49890000      0.02832270     -0.01823680      0.00726999       1
O              16.47760000      7.73476000     22.97710000     -0.01837600      0.06811540      0.03152360       8
H              16.07490000      9.69600000     22.89020000      0.00787515     -0.05318650     -0.00175595       1
H              16.44490000      7.66823000     24.86740000     -0.00200731     -0.01247430     -0.02270700       1
O               5.39564000      6.02942000      5.15978000      0.01125400     -0.03801780     -0.00692294       8
H               7.17062000      5.45557000      4.87492000     -0.02705970      0.01530080      0.00087712       1
H               4.74539000      4.71906000      6.31277000      0.00821514      0.02029410      0.00069103       1
O              14.77970000      3.72371000     14.37160000     -0.10408900      0.10285600      0.11453700       8
H              15.18470000      5.58389000     14.52400000     -0.01706850     -0.03827280      0.00303666       1
H              15.88960000      3.21372000     13.33380000      0.11687500     -0.06617870     -0.11785600       1
O              12.13070000     13.10010000     18.88500000      0.06125310      0.00839082     -0.00555096       8
H              13.63430000     12.98140000     20.09680000     -0.02196480      0.00337717     -0.01850390       1
H              12.83070000     14.38570000     17.71660000     -0.01692830     -0.00699338      0.01873310       1
O              23.22570000     10.35310000     15.47470000     -0.05027850     -0.01246480      0.04077590       8
H              21.44430000      9.81333000     15.89100000      0.03032330      0.00661503     -0.01498590       1
H              23.75260000     10.39250000     17.27980000      0.01456150      0.00331098     -0.02817290       1
O              19.63970000      8.06567000     18.95420000     -0.02800510     -0.08940590     -0.00700256       8
H              18.24840000      7.92218000     20.28060000      0.03857160     -0.00064484     -0.01331090       1
H              19.86570000      5.94895000     18.47720000     -0.00420696      0.08826020      0.02688360       1
O              20.01230000     14.11780000      8.73234000     -0.01208890     -0.04454950      0.00328244       8
H              18.67920000     13.00930000      9.84159000      0.03781580      0.02206040     -0.05067410       1
H              20.40770000     13.28040000      6.98528000     -0.02801740      0.02316110      0.04401400       1
O               3.76342000      9.89485000     17.65510000      0.00219705     -0.00530571      0.00053599       8
H               5.28847000     10.36440000     18.52170000     -0.00532894      0.00317984     -0.00618648       1
H               4.06241000      8.14678000     17.17860000     -0.00482463      0.00853832      0.00677522       1
O              11.74850000     21.43020000     11.62750000      0.05894050     -0.04922240      0.00169153       8
H              11.47630000     19.58490000     10.99650000      0.00272005      0.04881000     -0.00313858       1
H              12.13500000     22.69280000     10.30840000     -0.01812880      0.01778710     -0.02816290       1
O              21.64310000      2.09693000     24.58620000     -0.04185900      0.05245590     -0.04386180       8
H              23.14230000      1.74206000     23.71550000      0.03695370     -0.03188920      0.00364616       1
H              21.05800000      3.03389000     22.96280000     -0.00776118     -0.01947850      0.04103970       1
O              15.41010000      9.33706000     15.91250000     -0.01794530      0.01376300      0.04955210       8
H              16.21450000      8.95720000     17.56430000      0.00512982      0.00134380     -0.02733230       1
H              14.22450000     10.71870000     16.42860000      0.01682040     -0.02045720     -0.01685510       1
O               2.52567000     10.59830000     10.97640000     -0.02203130      0.00126461     -0.03227830       8
H               0.88426100     10.84360000     11.83700000      0.02349250     -0.00304667     -0.00632934       1
H               2.34414000     11.04730000      9.13445000     -0.00145679     -0.00321990      0.04205120       1
O               5.34510000     20.99340000     13.19200000      0.01819700      0.00029745      0.00202980       8
H               6.22617000     21.13200000     14.86120000     -0.02423380     -0.00620922     -0.02322650       1
H               6.77224000     20.54570000     12.11110000     -0.02329990     -0.00276590     -0.00114328       1
O              21.33050000      3.15906000     19.54410000      0.06924960      0.10963900      0.04353390       8
H              20.82400000      1.80864000     18.72080000     -0.03630220     -0.10123900     -0.06466110       1
H              23.06810000      3.59371000     18.92230000     -0.03081570     -0.00878256      0.00901179       1
O              16.18620000      1.98073000      2.03684000      0.02627150      0.01133580     -0.02495210       8
H              15.91790000      3.70293000      1.49658000     -0.01620960     -0.00322836      0.01425060       1
H              17.93430000      1.86489000      1.49698000     -0.00706017     -0.01839350      0.00640216       1
O               8.54878000     10.75570000     15.82010000      0.01693150      0.00907181     -0.00226512       8
H               9.82918000     11.22880000     17.09830000     -0.01582300     -0.00860418     -0.01759010       1
H               8.96919000      9.08009000     15.20100000     -0.00011634      0.01611660      0.01206300       1
O               7.53516000     17.84130000      8.93101000      0.02539080     -0.01335690     -0.04897210       8
H               7.71657000     16.08590000      9.46036000     -0.01163890      0.01215780      0.01088650       1
H               7.78471000     17.61790000      6.99200000     -0.01600120      0.00826897      0.04878190       1
O              10.56240000      6.69048000     17.83990000     -0.03154650     -0.01669840     -0.00039186       8
H              10.10060000      5.42021000     16.58950000      0.02716860      0.00302194      0.00497688       1
H              12.16630000      7.45449000     18.00250000      0.01443970     -0.01265330     -0.01589840       1
O              23.29660000      1.90767000     12.49540000     -0.02039580      0.01020790     -0.00473463       8
H              21.83780000      1.08614000     13.38930000      0.02456160      0.01590360     -0.02030640       1
H              22.79170000      3.28918000     11.33350000     -0.00578562     -0.02995560      0.02253030       1
O               7.23271000     13.19910000     11.42230000      0.03675510      0.05194300     -0.02348630       8
H               6.11494000     12.02630000     10.85380000     -0.04476420     -0.03819250     -0.01268230       1
H               7.73242000     12.67370000     13.03740000      0.00996915     -0.01284380      0.03638330       1
O              16.28940000     13.14560000     22.36610000      0.04374380     -0.00355155     -0.00693174       8
H              16.39380000     14.40450000     23.74140000     -0.00488734     -0.02034010     -0.01637410       1
H              18.13510000     12.75170000     21.90100000     -0.03403820      0.01688570      0.01369100       1
O              23.32080000      9.04430000      5.63125000     -0.01264340      0.02961630      0.01859910       8
H              24.67830000     10.44870000      5.94066000     -0.01783180     -0.03316470     -0.01184450       1
H              21.74110000     10.16330000      5.31267000      0.01622470     -0.01962480     -0.00490035       1
O              17.83860000      2.30317000     10.06860000      0.00672953      0.02669920      0.00503423       8
H              17.52170000      1.33301000      8.56325000     -0.00426702      0.00859288      0.00312592       1
H              18.19010000      4.07795000      9.52570000     -0.00186150     -0.03422690     -0.00479213       1
O               8.90171000     -0.31014000     21.06220000     -0.12268800      0.06068570     -0.02586510       8
H              10.02940000      0.45769500     20.02220000      0.07847120      0.02134860     -0.02879280       1
H               7.43331000      1.37010000     19.94210000      0.04702540     -0.07773180      0.05619210       1
O              20.48320000      5.08863000      6.79128000      0.04312850      0.06152170      0.00663865       8
H              21.29460000      3.47260000      6.93230000      0.00425377      0.00638982      0.00226884       1
H              22.32060000      7.17889000      7.06124000     -0.03139970     -0.03704450     -0.02604880       1
O              22.37340000     15.04160000     13.26680000     -0.01712680      0.15298800     -0.09618030       8
H              22.51980000     13.65470000     14.02120000      0.03248110     -0.16971000      0.10817200       1
H              21.32380000     14.57430000     11.88220000     -0.00734743      0.01596430     -0.01595730       1
O              20.30400000     23.00210000     16.52900000      0.04829820      0.02705340      0.05346180       8
H              18.98920000     22.07600000     15.75230000     -0.02439300     -0.02231690     -0.02148240       1
H              21.17400000     22.04520000     17.87780000     -0.01870830      0.00414399     -0.02892930       1
O              17.37010000     21.83560000     12.95930000     -0.03402470      0.01071040     -0.01342550       8
H              18.02320000     23.44310000     12.26900000     -0.01523610     -0.02490460      0.00358072       1
H              13.82110000     21.47140000     12.06880000      0.00406687     -0.00386270      0.01644060       1
