192
TotEnergy=-1103.74662000 cutoff=-1.00000000 nneightol=1.20000000 pbc="T T T" Lattice="24.06944000       0.00000000       0.00000000      -0.00000100      24.06944000       0.00000000      -0.00000100      -0.00000100      24.06944000" Properties=species:S:1:pos:R:3:force:R:3:Z:I:1
O              13.92370000     14.25920000     -0.16228500     -0.00911151     -0.00176191      0.00271691       8
H              13.78110000     16.06900000     -0.13716600      0.00698961      0.00177780      0.00399345       1
H              14.64270000     13.68080000      1.46247000      0.00370105     -0.00531694     -0.00723219       1
O              14.73410000      3.44511000     17.52210000      0.00526172     -0.00079714      0.00697129       8
H              13.34800000      2.49000000     18.22360000      0.00277877     -0.00057142      0.00328157       1
H              13.95320000      4.45280000     16.24360000      0.00463166      0.00168290     -0.00093366       1
O              24.61280000      0.98641100     18.71560000     -0.00536661     -0.00014573      0.00717368       8
H              24.31240000     -0.31480200     17.42600000      0.00664747      0.00318112      0.00338437       1
H              22.98400000      1.52625000     19.31300000     -0.00671585     -0.00194628     -0.00498887       1
O               3.20493000      3.32217000     11.01090000      0.01134400     -0.00621555      0.00210049       8
H               2.00687000      4.60654000     10.62310000     -0.01292440      0.00985939     -0.00275289       1
H               2.38062000      1.77103000     10.58910000     -0.00307216     -0.00028734     -0.00194395       1
O              22.46070000     14.49270000     14.52180000      0.00757464      0.00699577     -0.00249904       8
H              23.52220000     13.28550000     13.59720000     -0.00611709      0.00070103      0.00836522       1
H              23.53890000     15.39740000     15.66800000      0.00414600     -0.00829535      0.00420903       1
O               0.30548500      9.87442000     13.12210000     -0.00803887      0.01001040      0.00147975       8
H               0.68760400      9.70249000     14.88400000      0.00790917     -0.00066753      0.00338716       1
H               1.84908000      9.66352000     12.18940000      0.00299695      0.00105641     -0.00467688       1
O              21.89800000      6.33496000     10.60750000      0.00957069     -0.01334530     -0.02428400       8
H              22.14060000      7.70037000     11.74650000      0.00045140      0.00941165      0.00992845       1
H              20.35740000      5.41063000     10.93220000     -0.00411706     -0.00131530      0.00432348       1
O              18.18900000     11.63330000     14.26650000     -0.00601685     -0.00608640     -0.00031683       8
H              16.78160000     12.43070000     13.46460000      0.00007428      0.00223619     -0.00185440       1
H              19.42570000     12.93130000     14.60300000      0.00274588     -0.00042861     -0.00195912       1
O               7.68885000     18.21980000      0.85667200     -0.00210251     -0.00655291      0.00092275       8
H               8.25028000     16.68100000      1.64087000      0.00202214      0.00221560     -0.00515831       1
H               8.89390000     19.46730000      1.39606000     -0.00545804      0.00273245      0.00059170       1
O              11.24150000     12.15570000     14.49980000     -0.00571042     -0.00186952      0.00283227       8
H              12.05770000     12.02230000     16.14010000      0.00381080      0.00481021     -0.00367223       1
H              10.31130000     10.61950000     14.25970000      0.00375874     -0.00247239      0.00405421       1
O              23.34690000     10.89770000      1.84876000     -0.02483080      0.00725955     -0.00017070       8
H              22.46040000     11.08710000      0.23315800     -0.00714706      0.01381460      0.01166270       1
H              25.02420000     10.73040000      1.39503000      0.01251040     -0.01948930     -0.02444550       1
O               2.23033000      9.95169000     18.15970000      0.00087769     -0.00279586     -0.00304367       8
H               3.89664000      9.23668000     18.37210000     -0.00285342      0.00098704      0.00250829       1
H               1.06431000      8.61534000     18.56010000      0.00024651      0.00327163      0.01002140       1
O               2.76149000      0.81566700     23.66690000     -0.00032078      0.00318893      0.00182062       8
H               1.54915000      0.34212300     22.39690000      0.00344539      0.00269013     -0.00338552       1
H               3.14098000     -0.71972000     24.53840000     -0.00586686     -0.00672144      0.00544716       1
O              13.37120000      8.31775000      2.75322000      0.01010860     -0.00321322     -0.00989068       8
H              12.17440000      9.63475000      3.05572000     -0.00800762     -0.00473764      0.00444546       1
H              15.12580000      9.61861000      3.10202000      0.00447886      0.01187030     -0.00147211       1
O              18.24810000     17.61450000      3.43364000     -0.00017581     -0.00550653      0.00346907       8
H              17.52060000     15.95810000      3.69477000      0.00169585     -0.00508461      0.00130431       1
H              17.11210000     18.41230000      2.17019000      0.00086210     -0.00345764      0.00207497       1
O              16.32550000     11.98780000      8.85570000     -0.00143402     -0.00028714      0.00669524       8
H              16.68090000     10.43290000      9.72179000      0.00000760      0.00261613     -0.00107776       1
H              14.51840000     12.25170000      8.97706000      0.00157670     -0.00273627     -0.00405549       1
O              10.08260000     20.77400000     17.51310000     -0.00087011     -0.00017388      0.00231128       8
H              11.73770000     20.13870000     17.07230000      0.00153074      0.00006155      0.00166529       1
H              10.43670000     22.30640000     18.47590000     -0.00464571      0.00142936     -0.00404463       1
O              18.61830000      2.27743000      1.12254000     -0.01307570     -0.01459670     -0.00123091       8
H              16.92810000      2.48627000      1.82464000      0.00021279      0.00420915      0.00245577       1
H              19.40170000      3.82834000      1.54744000      0.00906285      0.01362190      0.00723000       1
O               9.94528000     18.21160000      9.32963000     -0.01479000     -0.00750312     -0.01203920       8
H               8.32790000     18.40030000     10.13570000      0.00308960      0.00584582     -0.00156414       1
H              11.15960000     18.97780000     10.41120000      0.01343610      0.01056110      0.01070450       1
O              13.93720000     13.46660000     18.69000000      0.00136611      0.00793377      0.00631128       8
H              15.64970000     13.10780000     19.20170000     -0.00520762     -0.00639272     -0.00566512       1
H              13.09740000     13.58230000     20.31330000      0.00552078     -0.00153807      0.00047896       1
O               5.80306000      1.37541000     18.36420000     -0.00592799      0.00432499      0.00417065       8
H               4.05639000      1.39147000     18.92480000     -0.00017725     -0.00113948     -0.00040158       1
H               5.94236000     -0.12332200     17.36460000      0.00276709     -0.00208094     -0.00168004       1
O              15.10520000     19.29650000     16.61910000      0.00126021      0.00095327      0.00235407       8
H              16.42120000     20.18630000     17.53570000     -0.00153913     -0.00364988      0.00365811       1
H              14.95740000     17.69940000     17.48160000      0.00014760     -0.00446986     -0.00251761       1
O              11.00700000      6.45162000     14.34300000      0.00139638      0.00124949     -0.00399312       8
H               9.20203000      6.20632000     14.47140000     -0.00334195     -0.00385323      0.00360943       1
H              11.64510000      4.85441000     13.70910000     -0.00035069     -0.00070619     -0.00301976       1
O              14.08300000     21.11910000     11.90640000     -0.00386332     -0.01008800     -0.00218530       8
H              15.60450000     20.81060000     10.91850000      0.00051154      0.00856080     -0.00036809       1
H              14.44600000     20.44980000     13.58220000      0.00122439     -0.00152377      0.00101053       1
O              12.35270000     23.16090000      1.77792000     -0.01854560     -0.01498420      0.00942611       8
H              12.95000000     24.76420000      2.38081000     -0.00037734      0.00705099      0.00606214       1
H              11.18790000     22.31000000      3.25953000      0.02873770      0.02601820     -0.03296080       1
O              16.61780000     11.56130000      3.45357000     -0.00221772     -0.00575352     -0.00053700       8
H              26.14970000     13.27800000      2.60435000      0.03538270     -0.03234600      0.00056343       1
H              16.99020000     11.45990000      5.23823000     -0.00546479      0.00417997     -0.00678944       1
O              12.70230000      1.77991000     12.29020000      0.02480800     -0.03968670     -0.00417000       8
H              11.02510000      2.01205000     11.60030000      0.00505247     -0.01553340     -0.00425296       1
H              13.49330000     -0.21453400     12.07330000     -0.03523030      0.05861940      0.00598415       1
O              10.87150000     12.91430000      9.62216000      0.00047565      0.00240189      0.00030718       8
H              10.49780000     14.66040000      9.28646000      0.00522196      0.00341128     -0.00216056       1
H              11.38620000     12.87560000     11.39680000     -0.00413542     -0.00089925     -0.00169967       1
O              20.16340000     22.13600000      4.69552000     -0.00253696     -0.00109723      0.00037128       8
H              19.42840000     22.94810000      3.23689000      0.00312196      0.00502279      0.00398878       1
H              19.31690000     20.50410000      4.79439000      0.00407688     -0.00224221     -0.00610770       1
O               9.74682000     11.62030000      4.26701000      0.00301589     -0.00353836      0.00677053       8
H               8.20794000     12.45910000      3.95506000     -0.00678227      0.00788216      0.01139640       1
H               9.83364000     11.16780000      6.04293000     -0.00095290      0.00037456     -0.00118787       1
O               0.92820400     23.99200000      6.75679000     -0.00131287      0.00652856     -0.00666399       8
H               1.14641000     22.43230000      7.63025000     -0.00080626     -0.01337660      0.00616486       1
H              -0.54466200     23.70230000      5.70095000      0.00303398      0.00002321      0.00329320       1
O               1.07171000     21.29870000     15.55440000     -0.00168134      0.00182001     -0.00429235       8
H               0.04781800     21.35450000     14.04870000      0.00253716     -0.00609678      0.00066258       1
H               2.84181000     21.18850000     15.04740000     -0.00264223     -0.00537942      0.00012575       1
O              10.78260000      1.12669000     20.06890000      0.00470456     -0.00306888      0.00676643       8
H              10.82180000      0.63946800     21.82620000      0.00226409      0.00320278      0.00282729       1
H               9.54793000      2.44073000     19.89840000     -0.00474710     -0.00537505      0.00116672       1
O               7.26192000      9.12751000     19.56780000     -0.00161060     -0.00763269      0.00539485       8
H               8.62775000      8.91418000     20.78270000      0.00666401      0.00033748     -0.00507973       1
H               7.37624000      7.58684000     18.61230000      0.00199098      0.00468886     -0.00526693       1
O               6.04028000     20.04850000     14.41350000      0.00312988      0.00870685     -0.00478604       8
H               6.13290000     18.47400000     13.45350000     -0.00552573      0.00708364      0.00599158       1
H               7.68598000     20.40020000     15.14180000     -0.00129702     -0.00089090      0.00322044       1
O               5.69932000      5.50593000     15.28160000      0.00543096      0.00153935      0.00272793       8
H               5.22853000      4.61220000     13.76940000     -0.00686331      0.00248118     -0.00221882       1
H               5.64585000      4.15740000     16.53240000      0.00150804     -0.00199206     -0.00206558       1
O               2.58754000      6.78578000      5.18492000      0.00673489      0.00401086     -0.00777673       8
H               1.17999000      5.65093000      4.81708000      0.00406515      0.01595690     -0.00085179       1
H               3.90882000      6.28025000      4.06432000      0.00888970     -0.01126170     -0.00605228       1
O              14.21350000      3.68312000      3.92181000     -0.00566333     -0.00170895     -0.00214553       8
H              13.55700000      5.47437000      3.75905000      0.00828671     -0.00173058     -0.00589115       1
H              14.68050000      3.44924000      5.64393000      0.00179137      0.00104698      0.00488446       1
O               8.29085000      2.92991000      9.73014000     -0.00021371     -0.00073341     -0.00381662       8
H               6.47409000      3.16138000      9.93216000      0.00189055     -0.00310728      0.00283486       1
H               8.44198000      1.94705000      8.20858000     -0.00357455     -0.00173673      0.00440076       1
O              11.82850000      8.28493000     21.79550000      0.00128841     -0.00266175     -0.00156664       8
H              12.53960000      8.10424000     23.50080000      0.00354969      0.00155288      0.00571485       1
H              13.21510000      8.08395000     20.62540000     -0.00565899      0.00272694      0.00388220       1
O               6.05217000      0.78430700      5.68442000      0.00015272     -0.02294700      0.00270200       8
H               4.43210000     -0.01327200      5.98317000     -0.00459737      0.00478560     -0.00093156       1
H               5.66991000      2.48481000      5.33636000     -0.00164160      0.01764600     -0.00816643       1
O              17.90400000      3.26481000     11.31710000     -0.00239702      0.00824155     -0.00556471       8
H              18.04190000      1.66705000     10.42960000     -0.00041778     -0.00123602      0.00611163       1
H              16.16600000      3.78198000     11.15420000      0.00078132     -0.00734145      0.00479473       1
O               9.47550000     21.33380000      4.81034000     -0.00462998     -0.00811027      0.00418860       8
H               8.38904000     22.69310000      5.41922000     -0.00199982     -0.00451048      0.00122868       1
H              10.05190000     20.17560000      6.08465000     -0.00540998      0.00241608      0.01245860       1
O               1.88269000     18.96720000      8.78607000      0.00476088      0.00098301      0.00148350       8
H               3.02881000     18.10070000      9.92639000      0.00204190     -0.00020356     -0.00396507       1
H               1.77319000     17.93960000      7.29584000     -0.00304492     -0.00000578     -0.00138154       1
O               7.73073000     13.00270000     23.98630000     -0.00668653     -0.01255240     -0.00193555       8
H               9.08494000     11.82270000     24.37430000      0.00241489      0.00588757      0.00038675       1
H               7.82353000     13.20210000     22.17240000     -0.00520344     -0.00053866      0.00344900       1
O              18.60580000     20.65480000     20.52030000     -0.00053166     -0.01323870     -0.00488314       8
H              18.84850000     22.40370000     20.11870000      0.00457739      0.01505190     -0.00110312       1
H              20.29750000     19.89530000     20.54290000     -0.00213576      0.00270003      0.00126075       1
O              20.45810000     13.25070000     22.48510000      0.00059584     -0.00697926     -0.00741627       8
H              19.87950000     14.92810000     22.15820000     -0.00047814      0.00020829      0.00217150       1
H              19.27340000     12.12060000     21.67980000      0.00162414      0.00352458     -0.00132813       1
O               2.09195000     19.95780000      1.23495000      0.00238166      0.00394872     -0.01126220       8
H               3.60648000     19.21900000      0.56270600      0.00526799     -0.00251431      0.00648902       1
H               1.45855000     18.88030000      2.53506000     -0.00165799     -0.00568955      0.00724920       1
O              15.21170000     19.57500000     24.11030000      0.00324831      0.00058584      0.00137960       8
H              14.22440000     21.06010000     24.66870000     -0.00027978      0.00034451      0.00222313       1
H              16.60650000     20.18670000     23.07470000     -0.00621704     -0.00240096     -0.00834331       1
O              19.23090000      1.72038000     20.16250000     -0.00087623      0.00047765     -0.00565925       8
H              18.73960000      1.64948000     21.93460000      0.00189588      0.00899209      0.00285822       1
H              17.85900000      2.56600000     19.26970000      0.00156316     -0.00264948     -0.00166217       1
O               4.07706000     10.20780000      9.61996000      0.00756384      0.00430230      0.01343120       8
H               4.14087000     10.19860000      7.83103000     -0.00360056     -0.00642932     -0.00665251       1
H               5.71056000      9.54781000     10.10760000      0.00246539     -0.00050198     -0.00478044       1
O               9.14296000      7.81224000      8.95226000      0.00331838      0.00066689      0.00151882       8
H              10.37060000      7.78658000     10.30150000     -0.00311462      0.00613014     -0.00192277       1
H               8.96304000      6.01289000      8.64270000     -0.00288321      0.00360731      0.00265878       1
O               5.82717000     17.85750000     19.69110000      0.00104269     -0.00297395      0.00089700       8
H               6.18241000     17.27610000     21.37080000      0.00306858      0.00562057      0.00180547       1
H               7.30105000     18.85590000     19.25930000     -0.00037234     -0.00135200     -0.00329222       1
O               5.29404000     16.01290000     11.72320000     -0.00116011     -0.00118056     -0.00116699       8
H               4.50234000     15.19380000     13.21980000      0.00100733     -0.00262851     -0.00184913       1
H               6.90663000     15.20870000     11.61720000      0.00215920     -0.01152960     -0.00503384       1
O               3.88538000     14.32560000     16.04860000      0.00091508      0.00719339      0.00192432       8
H               3.33176000     12.87730000     17.01660000     -0.00241636      0.00018110     -0.00263212       1
H               4.74248000     15.49580000     17.16920000     -0.00317552     -0.00013280      0.00387518       1
O              18.25480000      9.50009000     18.77820000     -0.00523719      0.00061637      0.00310543       8
H              18.05540000      9.41852000     16.95070000      0.00273133      0.00665073      0.00600791       1
H              18.84290000      7.91021000     19.37560000      0.00142280     -0.00556344     -0.00062798       1
O              23.34670000     18.80260000     20.87530000     -0.00060802      0.00120821     -0.00943976       8
H              24.52150000     19.92350000     20.04150000     -0.00280827     -0.00612424     -0.00028288       1
H              23.94690000     18.67510000     22.57820000      0.00272016      0.00487002      0.00496264       1
O              18.54170000     22.42180000      9.77024000      0.00060207     -0.00103133      0.00227833       8
H              19.76070000     21.58820000     10.85970000     -0.00190253     -0.00370891     -0.00452402       1
H              19.22500000     22.34910000      8.07847000      0.00031439      0.00130605     -0.00224481       1
O              21.65450000      6.91453000      4.82001000     -0.00090600     -0.00090551     -0.00480254       8
H              22.10760000      6.54433000      6.53295000     -0.00916046      0.00032646      0.01379060       1
H              21.75370000      8.73641000      4.71052000     -0.00383174     -0.00983851     -0.00486790       1
O               3.73764000     12.15920000      2.82140000     -0.00441622      0.02047480     -0.00143318       8
H               3.43570000     10.32110000      3.02613000     -0.00442234      0.00774763      0.01282820       1
H               5.17824000     12.39620000      1.52281000      0.00165360      0.00943795     -0.00781158       1
O              23.62280000      6.78245000     21.52150000     -0.00319898     -0.00560242      0.00266293       8
H              23.65100000      6.88486000     23.33640000     -0.00159891     -0.00151412     -0.00280882       1
H              23.02410000      5.11211000     21.14410000     -0.00035645      0.00163323      0.00150787       1
O              23.61100000     16.42210000      4.39158000      0.00071600     -0.00728372      0.00172801       8
H              23.72720000     14.72750000      5.02750000     -0.00850579      0.00050446      0.00293609       1
H              21.78440000     16.71420000      4.23529000      0.00449692      0.00175720     -0.00646903       1
O               6.15359000      4.20538000      1.22256000     -0.00099242      0.00498176      0.00582888       8
H               6.58513000      4.85753000     -0.39931700      0.00421641      0.00484826     -0.00235045       1
H               5.02103000      2.82662000      0.80101300     -0.00297557      0.00153935     -0.00363213       1
O              21.67630000     18.63100000     11.71480000      0.00409561      0.01881010     -0.01003350       8
H              22.05620000     17.39490000     12.99100000     -0.00561500     -0.01107640     -0.00008584       1
H              22.98180000     18.41130000     10.43300000     -0.00620485      0.00349408      0.00739636       1
