192
TotEnergy=-1103.79036000 cutoff=-1.00000000 nneightol=1.20000000 pbc="T T T" Lattice="24.01029000       0.00000000       0.00000000      -0.00000100      24.01029000       0.00000000      -0.00000100      -0.00000100      24.01029000" Properties=species:S:1:pos:R:3:force:R:3:Z:I:1
O              14.59810000     21.14220000     13.35300000     -0.00664248      0.00371882      0.00211879       8
H              15.43970000     19.54900000     13.03410000      0.00489657     -0.00516667      0.00512429       1
H              15.93210000     22.28640000     13.79380000      0.00311123      0.00205585     -0.00270152       1
O              18.19220000      3.16279000     21.99000000     -0.00902712     -0.01574090      0.01209460       8
H              19.79160000      3.37660000     22.80920000      0.00473290     -0.00126641     -0.00089015       1
H              18.28190000      4.32666000     20.63050000      0.00290531      0.01380000     -0.00928836       1
O              17.72300000     22.10150000     19.89270000     -0.00758401      0.00599252     -0.00505156       8
H              16.48380000     22.07940000     18.55670000      0.00078534     -0.00289585      0.00496239       1
H              17.55900000     -0.20960300     20.59440000      0.00668210     -0.00184442      0.00169932       1
O               7.83707000      3.39112000      3.12125000      0.00385124      0.00386936     -0.00861049       8
H               8.92189000      2.56982000      1.92827000      0.00530280      0.00234986      0.00085517       1
H               6.87536000      4.60120000      2.10710000     -0.00697858     -0.00169724      0.01293060       1
O              21.95290000      9.14695000      4.37633000      0.00084582      0.00057394     -0.00629105       8
H              22.47400000      7.40692000      4.36842000      0.00344386      0.00268998      0.00187709       1
H              20.16100000      9.05478000      4.56461000     -0.00459941      0.00068002      0.00128084       1
O               3.00465000     22.30910000     -0.12994200     -0.00302506      0.00583600      0.00250424       8
H               4.30756000     23.14650000     22.90390000      0.00309007     -0.00443652     -0.00072973       1
H               1.66616000     -0.46646600     -0.11781200     -0.00139034      0.00063893     -0.00789342       1
O              20.36980000     10.73330000     15.84570000     -0.02244780      0.00137327     -0.00271229       8
H              19.67300000     12.17990000     16.70720000     -0.00321327     -0.00272694     -0.00365791       1
H              22.13850000     10.72250000     16.11290000      0.02199480      0.00220195      0.00454944       1
O              15.02400000      6.21065000      4.17006000     -0.00364414     -0.00354886     -0.00587114       8
H              15.54530000      4.46675000      4.20327000      0.00213691     -0.00125361      0.00291597       1
H              13.64650000      6.26877000      2.98066000      0.00376328     -0.00027439      0.00251700       1
O               0.90210800      6.11166000      8.38855000      0.00592507     -0.00771390      0.00350228       8
H              24.24160000      5.21068000      9.82166000     -0.00604409      0.00367720     -0.00349308       1
H               1.89487000      4.78546000      7.61843000     -0.00116727      0.00203147      0.00033208       1
O              21.65250000     21.94060000      9.72541000     -0.00772727     -0.01058200      0.00166606       8
H              21.61200000     20.59430000     10.95350000      0.00665704      0.00361713      0.00205889       1
H              20.69660000     21.26830000      8.34346000      0.00125611      0.00167708     -0.00659762       1
O               8.27604000     14.50400000     10.80660000     -0.00318507     -0.01082300     -0.00800107       8
H               8.67360000     13.92370000      9.13181000      0.00287117      0.00705805      0.00426101       1
H               6.43336000     14.53090000     10.89140000     -0.00108081     -0.00257286     -0.00166632       1
O              10.28830000      8.77045000     11.84390000      0.00539573     -0.02628550      0.00059689       8
H              11.01950000      8.31586000     13.46580000     -0.00766784      0.00322764     -0.00346859       1
H               9.95490000     10.51600000     11.93220000     -0.00545157      0.02216740      0.00333649       1
O              13.11310000     22.80330000      8.69254000      0.00278790      0.00353143      0.00241082       8
H              13.44120000     22.28540000     10.43520000      0.00507360     -0.00480806     -0.00521472       1
H              13.73640000     21.48940000      7.59525000     -0.01325700     -0.00642288      0.00459358       1
O               9.21010000      5.95970000     16.44640000      0.00091694     -0.00623823     -0.00600676       8
H               9.04225000      4.33125000     15.56800000     -0.00682929     -0.00186274     -0.00262447       1
H               9.64108000      5.37405000     18.10110000      0.00027095      0.00822393      0.00883625       1
O              12.56710000      0.56299000      1.83129000      0.00129647     -0.00090743      0.00230651       8
H              13.91490000      0.36191700      3.04117000      0.00395149      0.00255584      0.00067872       1
H              11.41630000     23.25770000      2.28426000      0.00119732     -0.00282991     -0.00094050       1
O              14.22260000      2.65178000     16.47660000      0.00152275     -0.00288880     -0.00626978       8
H              15.79610000      2.02052000     15.73750000      0.00466488      0.00234321      0.00740756       1
H              13.07570000      2.45854000     15.09340000     -0.01016870      0.00060304      0.00074784       1
O              17.92030000     16.92820000     13.12810000      0.00376252      0.00135468     -0.00009114       8
H              19.60140000     17.61550000     12.87370000     -0.00208329     -0.00772997      0.00004697       1
H              18.16790000     15.94240000     14.64800000     -0.00812701      0.00325015     -0.00138281       1
O               1.77901000     10.79240000     15.96620000     -0.00078127     -0.00759385     -0.00609100       8
H               1.61329000     12.19630000     14.84750000      0.00426331      0.00891982     -0.00301025       1
H               2.52612000      9.47015000     14.91110000     -0.00153479      0.00322439      0.00657238       1
O              18.69830000     15.48580000      6.49562000     -0.00801761     -0.00247324      0.00311812       8
H              17.62570000     15.34070000      7.98158000      0.00173088     -0.00012074     -0.00331656       1
H              17.64020000     14.70580000      5.23876000      0.00332198      0.00368106     -0.00110742       1
O               7.43381000     -0.02259200     21.08690000      0.01741580      0.01241610      0.00953667       8
H               8.66719000      1.32387000     21.26680000     -0.00318761     -0.00246729      0.00621959       1
H               6.54523000     24.41420000     19.53490000     -0.01332210     -0.01559710     -0.00988385       1
O               9.26712000     16.39350000     15.34400000     -0.00513812     -0.00239763      0.00641138       8
H               8.85442000     16.05290000     13.59930000      0.00533528      0.00388454     -0.00226534       1
H               9.28800000     18.19180000     15.63670000      0.00641968     -0.00371696      0.00189773       1
O               5.88397000     12.94380000      2.14911000      0.00439257      0.00194531      0.00160788       8
H               7.45761000     12.40350000      1.39860000     -0.00130893      0.00372752      0.00233622       1
H               6.11707000     12.84830000      3.95215000      0.00047313     -0.00422071     -0.00735571       1
O               7.30280000      6.35550000      7.95004000      0.00113297     -0.00153765      0.00434631       8
H               8.54847000      5.50903000      6.92819000     -0.00475930      0.00026198     -0.00104711       1
H               8.09618000      6.89217000      9.50726000      0.00411455      0.00141318     -0.00360942       1
O               1.61638000      2.96597000     16.91110000     -0.00495369      0.00223038      0.00453608       8
H               0.00221900      3.52306000     17.48040000     -0.00938381      0.00660874      0.00300605       1
H               2.40794000      4.41607000     16.16120000      0.00251715      0.00157147     -0.00539565       1
O              11.48820000     11.22050000     16.62150000     -0.00707687      0.00460742     -0.00285472       8
H              10.06080000     10.29980000     17.27770000      0.00733267     -0.00122481     -0.00100716       1
H              10.78880000     12.81990000     16.11390000     -0.00368188      0.00539532      0.00026744       1
O               4.87358000     23.15820000     16.97320000      0.02359140     -0.02036090      0.00011895       8
H               3.43443000      0.18306400     16.91960000     -0.01505830      0.01436350     -0.00434027       1
H               4.34802000     20.52670000     16.67760000      0.00205422      0.01740160      0.01059380       1
O              21.20800000      6.34341000     18.99350000      0.00448423      0.00204199     -0.00260473       8
H              20.38890000      6.70112000     17.43450000     -0.00405087      0.00543512     -0.00731179       1
H              21.61090000      8.01905000     19.67600000     -0.00053112     -0.01456860      0.00343609       1
O              18.65650000      1.23719000     14.32990000      0.00345678      0.00328256      0.00581160       8
H              19.91040000      0.04887800     14.95160000      0.00304520     -0.00140334      0.00165131       1
H              19.49490000      2.85242000     14.45570000     -0.00325731     -0.00110514     -0.00978564       1
O              22.00060000     21.85460000     16.77750000     -0.07212630     -0.02373220     -0.03202110       8
H              -0.48089700     22.33110000     17.35340000      0.06247160      0.02267710      0.03036290       1
H              20.75640000     21.68010000     18.13050000      0.00934688      0.00288404      0.00179715       1
O              23.23270000      9.93467000     21.92130000      0.01190000     -0.00910999     -0.03323140       8
H              22.89160000     10.40710000     -0.43415500     -0.00610202      0.00322203      0.03428710       1
H               0.93665700      9.28762000     21.85970000     -0.00520785      0.00759435      0.00095144       1
O              11.17070000     20.80360000     17.96630000     -0.01238000      0.00650583      0.00286557       8
H               9.87057000     22.09180000     18.17100000      0.00734163     -0.00873185     -0.00038533       1
H              12.01790000     21.19010000     16.41450000      0.00481467      0.00266932     -0.00449253       1
O               3.92017000      9.43069000      5.85968000     -0.00007108      0.00808011      0.02549360       8
H               2.39370000      9.07709000      6.84026000      0.00419608     -0.00128343     -0.00610919       1
H               5.18770000      8.24541000      6.58654000     -0.00162707      0.00644848      0.00181754       1
O              12.05250000     18.62530000      4.77394000      0.00460224     -0.00737189      0.00235109       8
H              11.90780000     16.82450000      5.03913000      0.00850797      0.00743482     -0.00149511       1
H              10.29690000     19.06810000      4.64663000     -0.00709859      0.00047507      0.00238368       1
O               3.89544000     19.88550000     10.99490000     -0.00470185     -0.00239317     -0.00460755       8
H               5.06742000     21.22040000     11.33980000     -0.00119754      0.00241531     -0.00169439       1
H               2.27439000     20.66090000     10.74000000      0.00461759      0.00701217      0.00243026       1
O              17.01740000     12.80630000     22.68320000      0.01180090     -0.01239210     -0.01996750       8
H              16.35530000     13.57270000      0.13030900     -0.01252370      0.00933197      0.01620070       1
H              16.26560000     11.15420000     22.50660000     -0.00032240      0.00375574      0.00430966       1
O              14.11280000      8.86609000      8.43837000      0.00033538      0.00116507      0.00209246       8
H              14.37510000      7.50787000      7.24489000      0.00169804      0.00311642     -0.00664084       1
H              12.70590000      8.41294000      9.51508000      0.00087368      0.00138699      0.00173579       1
O               2.15516000     16.83500000      3.03844000      0.00472064     -0.00271167     -0.00550258       8
H               2.78119000     15.13830000      2.76144000      0.00071987      0.00506312      0.00399566       1
H               1.16422000     16.76680000      4.57567000     -0.00209064     -0.00255513     -0.00105394       1
O              14.28930000     14.04190000      9.02347000     -0.00380231      0.01509770     -0.01302340       8
H              14.45870000     14.45890000     10.76270000      0.00087002     -0.00398471      0.00733819       1
H              14.31350000     12.24410000      8.77432000      0.00333825     -0.01227360      0.00793117       1
O              20.18390000      6.47754000     12.15150000     -0.00808608     -0.01152770     -0.00351809       8
H              18.86190000      7.47188000     11.38890000      0.00482247     -0.00200618      0.00260542       1
H              21.39830000      7.65420000     12.74150000      0.00240680      0.01136840      0.00358296       1
O              -0.38938800     14.45900000      7.03172000      0.00174622     -0.00310798     -0.01005710       8
H              21.77060000     14.54870000      6.87957000      0.00264867      0.00472291      0.00339314       1
H              24.07870000     13.40970000      5.60999000     -0.00264734     -0.00540966      0.01162670       1
O              16.39320000     13.95760000     17.53710000     -0.01147800     -0.00481815     -0.01348140       8
H              15.04140000     13.11490000     16.63500000      0.00692598      0.00206195      0.00407997       1
H              15.79290000     13.94550000     19.24660000      0.00760411      0.00207602      0.00904190       1
O              20.37460000     21.54050000      3.19481000     -0.00992749      0.00509262     -0.00175575       8
H              21.70970000     20.52430000      2.54650000      0.00648711     -0.00253802     -0.00062053       1
H              18.97830000     21.23700000      2.04366000      0.00217364     -0.00535400      0.00377621       1
O               0.78929000      3.30591000     22.77460000      0.00127466      0.00116716      0.01055750       8
H               1.54093000      3.72191000     21.17970000     -0.00009573     -0.00172240     -0.00178488       1
H               1.72209000      4.29442000     -0.00130800     -0.00209201      0.00152561     -0.00143743       1
O               7.88435000     23.59530000      8.94421000      0.01078270      0.00779814     -0.00302006       8
H               9.66888000     23.50410000      9.36770000     -0.00290759     -0.00911635     -0.00042874       1
H               8.01853000      0.57334500      7.42879000     -0.00927671      0.00363202      0.00130228       1
O              17.00640000      0.87208500      5.82742000      0.00058414     -0.00355512     -0.00544567       8
H              16.43480000     -0.31090300      7.10237000      0.00142372      0.01385330     -0.00296099       1
H              18.56840000      0.20351400      5.15847000     -0.00232314     -0.00021183      0.00096937       1
O               3.84675000     18.64730000     16.89800000      0.00450445     -0.03534580      0.01797870       8
H               3.80475000     17.62280000     19.73500000     -0.00465230      0.00709814      0.00419376       1
H               5.20453000     17.60710000     16.23490000     -0.00737246      0.00622889     -0.00023111       1
O               6.78777000     19.15360000      4.76564000      0.00080273     -0.00669425     -0.00257734       8
H               5.12041000     18.47750000      4.36175000      0.00863363      0.00492158     -0.00546448       1
H               6.49701000     20.35060000      6.08331000     -0.00358492      0.00293552      0.00752389       1
O              23.10610000     17.51610000     13.53980000      0.00162586     -0.00031429     -0.00943498       8
H              23.54510000     18.58350000     14.91950000     -0.00240230      0.00860530      0.01098320       1
H               0.70866700     16.78420000     13.07820000     -0.00652647     -0.00212672      0.00345358       1
O               4.75149000     10.05260000     21.21400000     -0.00047082     -0.00352347      0.00527179       8
H               4.97760000     11.62360000     22.09920000      0.00212068     -0.00085900     -0.00672334       1
H               5.27171000     10.30190000     19.50010000     -0.00394716      0.00387913      0.00060275       1
O              15.07540000      7.60602000     18.63830000      0.00307612     -0.00942396     -0.00157257       8
H              14.70990000      6.07519000     17.69750000     -0.00131049      0.00184489      0.00448518       1
H              16.11540000      8.55468000     17.50740000      0.00191614      0.00562747      0.00011176       1
O               3.93136000      7.08077000      1.96404000     -0.00075918      0.01041990      0.00526413       8
H               3.84563000      8.48682000      3.70524000     -0.00113919     -0.03056990     -0.04622910       1
H               4.33107000      7.86953000      0.35713000     -0.00094036      0.00222300      0.01519450       1
O               1.91447000      0.85556000      9.64684000     -0.00016439      0.00308921      0.00495087       8
H               3.05293000      0.30619800      8.33291000     -0.00505604      0.00205749     -0.00419078       1
H               0.30033300      0.05531500      9.31308000      0.00476062      0.00128285      0.00098900       1
O               9.51936000     14.79120000     21.29560000      0.01023130     -0.00082575     -0.00104010       8
H              10.24130000     15.29010000     19.70830000     -0.00495775      0.00194697     -0.00183064       1
H               9.87797000     16.23660000     22.39830000     -0.00715511     -0.00662643     -0.00383133       1
O               8.22147000      1.29800000     14.52920000      0.02021400      0.01080750     -0.01195680       8
H               7.40828000      1.30616000     12.91540000      0.00256613      0.00053171     -0.00716745       1
H               6.94555000      0.33541800     15.57090000     -0.01722060     -0.00419789      0.01024690       1
O               3.14432000     16.51410000     21.32320000     -0.00571691     -0.00404992     -0.00307091       8
H               1.41832000     15.96640000     20.80160000      0.00001792     -0.00093631      0.01072880       1
H               3.25176000     16.93330000     23.17420000     -0.00133085      0.00940220     -0.03374460       1
O              22.05270000     15.06400000     20.29880000     -0.00291063     -0.00208509      0.00476427       8
H              21.46920000     13.36690000     19.96510000      0.01226480      0.00105779      0.00002633       1
H              21.00640000     15.44340000     21.73430000     -0.00111812      0.00744675     -0.00067885       1
O              11.65920000     10.07250000     22.78020000      0.00426131      0.00357280     -0.00875269       8
H              11.57450000     11.66810000     21.85420000     -0.00746630     -0.00464767      0.01042280       1
H              11.73300000      8.82572000     21.46300000      0.00546717     -0.00342480      0.00223778       1
O               4.18515000      6.72140000     13.81800000      0.00088882      0.00268630      0.00201815       8
H               5.91316000      6.63953000     14.40480000     -0.00084112     -0.00138857     -0.00068019       1
H               4.09292000      5.95875000     12.17700000      0.00190758     -0.00081788     -0.00193776       1
O              12.88640000     12.91920000      2.94127000      0.00871773     -0.00920379     -0.00657017       8
H              13.25880000     11.34260000      2.05499000     -0.01082000      0.01204480      0.00104024       1
H              12.70390000     12.40770000      4.65128000      0.00165431     -0.00347618      0.01123480       1
O               4.04533000     -0.15446400      4.94736000      0.00390512      0.00306230     -0.01201520       8
H               3.32316000     23.88940000      3.26536000     -0.01026370     -0.00791375      0.00567715       1
H               5.75507000      0.01576700      4.36740000      0.00307910      0.00599290      0.00774691       1
O               3.21111000     15.10050000     11.44190000     -0.01355070     -0.01591250      0.00055945       8
H               3.41959000     16.88450000     11.09250000      0.01310790      0.01438160      0.00104435       1
H               1.76993000     14.67310000     10.40290000      0.00534729     -0.00893060     -0.00835953       1
O              16.24930000     18.75300000      0.35356700     -0.00760020     -0.00348398      0.01551190       8
H              15.59170000     19.57910000     22.90570000      0.00167476      0.00400722     -0.00900883       1
H              14.80110000     18.61050000      1.47869000      0.00639702      0.00003776     -0.00378315       1
O              11.34730000      3.74369000     21.21710000      0.00268526     -0.00286349      0.00190677       8
H              12.16820000      2.93142000     19.80940000      0.00669801     -0.00027452     -0.00129425       1
H              12.54640000      3.53034000     22.57920000     -0.00465734     -0.00034501     -0.00342318       1
O               9.61452000     19.21150000     -0.41711000      0.00406830      0.01483390      0.00783973       8
H               9.13895000     20.09180000      1.10665000     -0.00618273     -0.01165540     -0.00580196       1
H              10.05230000     20.52990000     22.42920000     -0.00386380     -0.00013255     -0.00644981       1
