192
TotEnergy=-1102.31714000 cutoff=-1.00000000 nneightol=1.20000000 pbc="T T T" Lattice="24.35554000       0.00000000       0.00000000      -0.00000100      24.35554000       0.00000000      -0.00000100      -0.00000100      24.35554000" Properties=species:S:1:pos:R:3:force:R:3:Z:I:1
O               9.65105000      4.07602000      9.07094000      0.00346992     -0.01695390     -0.01823960       8
H               8.68605000      5.27331000      9.94618000      0.00705821      0.02647870      0.02749020       1
H               9.24088000      2.54633000      9.95807000      0.00504554     -0.01148750     -0.00679797       1
O              14.29230000     21.77230000      9.08199000      0.02307710     -0.00290332     -0.01064510       8
H              12.84580000     21.55250000     10.10360000     -0.01580130     -0.00509347      0.00924698       1
H              13.77920000     21.29260000      7.36110000     -0.00079128      0.00872769      0.00906990       1
O              19.98280000      0.68179400      2.56367000     -0.22251000     -0.01363350      0.05245340       8
H              19.03610000     23.56290000      1.69293000      0.02925310      0.03537180      0.03427990       1
H              21.41820000      0.60573200      1.92895000      0.19239700     -0.00499647     -0.07822000       1
O              11.30570000     22.82950000     17.22380000      0.01972260     -0.02492110      0.04601840       8
H              12.11640000     21.12600000     17.76540000     -0.01372280      0.05768920     -0.01477330       1
H              10.78960000     23.62180000     18.87970000      0.00200385     -0.01370550     -0.02512180       1
O               1.93759000      5.20408000      2.93281000     -0.05328480     -0.06416420     -0.04813630       8
H               2.51333000      6.13900000      4.19472000      0.03355380      0.05269440      0.08023080       1
H               2.79078000      5.76698000      1.51419000      0.02165940      0.01019550     -0.03046640       1
O              17.69350000      5.08048000     23.42320000     -0.01238380     -0.01288460     -0.00137569       8
H              18.15710000      6.57410000     -0.05672800      0.01256870      0.02159240      0.01384980       1
H              17.72230000      3.82621000      0.41206900      0.00042522      0.00095141     -0.01022390       1
O              23.02410000     -0.13669900      9.00446000     -0.08352970     -0.00816281     -0.04242720       8
H              20.68220000     22.88820000      7.71415000      0.05653950      0.01469320      0.00533526       1
H              23.24920000     22.99810000     10.31610000      0.01860830     -0.00183362      0.00754926       1
O              14.94800000     17.05330000      2.69107000     -0.06648980     -0.06205960      0.01138710       8
H              14.17720000     16.15250000      1.23436000      0.01698050      0.02008980      0.01094020       1
H              16.18600000     18.06860000      2.08403000      0.04846450      0.03687700     -0.02609500       1
O              12.48580000     16.66320000     21.80020000      0.07524510      0.02869120     -0.05352100       8
H              14.40480000     17.92110000     20.12400000     -0.07672780     -0.03735230      0.03777860       1
H              12.94580000     15.14920000     20.77010000     -0.02071870      0.00989788      0.02597870       1
O              11.26600000     18.74580000     12.49620000     -0.04899580      0.01572250      0.01977520       8
H              11.23320000     16.99750000     12.10410000     -0.00008628     -0.01231420     -0.01341150       1
H               9.38353000     19.18930000     12.49220000      0.04555190     -0.00705273     -0.00190982       1
O               0.57595900      6.99723000     21.37580000      0.03326650     -0.02776550     -0.01955060       8
H              23.25880000      7.34019000     21.15880000     -0.06052870      0.00667284     -0.01546890       1
H               0.88248700      7.97888000     22.79960000      0.02212600      0.01736380      0.03003300       1
O               8.45477000     10.63010000      3.83759000      0.05296470     -0.30662100      0.14227300       8
H              10.35470000     10.17190000      4.04923000     -0.06154770      0.00545089     -0.00736821       1
H               8.53708000     11.97550000      3.19913000      0.00736224      0.30082000     -0.13784400       1
O               4.58825000      9.65877000     23.45990000      0.07902470      0.03978200      0.06062500       8
H               3.74703000     10.55560000      0.55746200      0.00376365     -0.01638710     -0.02447690       1
H               6.52716000      9.93723000     -0.17421500     -0.07597360     -0.02388410     -0.03077200       1
O              10.49700000      7.30324000     13.27620000      0.16122000     -0.02149290     -0.07361270       8
H               9.21079000      6.94570000     14.18860000     -0.12329300     -0.01621320      0.08736250       1
H              11.71110000      5.78797000     13.85070000     -0.03047440      0.04391130     -0.01623360       1
O              13.43250000      0.93107400      0.18097500      0.00060306      0.00957579     -0.01828910       8
H              13.48940000     -0.32925200      1.43198000      0.00172152     -0.01665140      0.02559480       1
H              14.10270000      0.02778600     23.09730000      0.00599134      0.00540531     -0.00060291       1
O              11.79590000     11.95510000     20.10960000     -0.02418300     -0.00964395     -0.00589907       8
H              11.89600000     10.40420000     21.14240000     -0.01241380      0.02304310     -0.01296450       1
H              10.01010000     12.42810000     19.58180000      0.04126100     -0.01989740      0.01719980       1
O              19.83720000      9.23689000      1.98106000      0.07746560      0.02461750     -0.07400820       8
H              19.34330000      8.83661000      3.59322000     -0.00067671     -0.01896070      0.04776970       1
H              21.84010000      9.36479000      1.81742000     -0.07648030     -0.00698220      0.01797270       1
O               1.66891000     21.84480000     11.87020000     -0.03696250     -0.07425870      0.02760670       8
H               0.52933300     20.10380000     11.90290000      0.05709060      0.06865630     -0.00391727       1
H               1.61518000     23.22820000     15.99960000      0.05287230      0.03162190     -0.30520200       1
O              21.95540000      5.04512000      9.50487000     -0.07544790      0.04018540     -0.05164890       8
H              22.30270000      3.43446000     10.17130000      0.00409762     -0.04165480     -0.00920389       1
H              20.12890000      4.98054000      8.13915000      0.08800350     -0.00083303      0.05300430       1
O              13.53420000      3.79908000     15.35710000     -0.01102450     -0.09178310      0.07082390       8
H              13.26690000      1.48723000     16.53990000     -0.00028057      0.08744030     -0.05242120       1
H              14.50920000      3.14575000     13.98260000      0.01452350     -0.00494953     -0.01587390       1
O              13.49280000      7.45313000      5.27164000     -0.05361090     -0.07322110     -0.01054260       8
H              12.11760000      6.04764000      5.78020000      0.05256670      0.05707160     -0.00737301       1
H              13.28790000      8.83595000      6.36835000     -0.00275308      0.01212360      0.02985020       1
O              18.62970000      5.45670000      5.32770000      0.06579700     -0.05903160     -0.03646670       8
H              18.84830000      3.60692000      4.73060000     -0.00398599      0.04600140      0.01326680       1
H              17.18630000      5.58433000      6.23312000     -0.06806790      0.00313821      0.02899030       1
O               1.61003000     15.65150000     10.26980000      0.00256592      0.00214648     -0.03639560       8
H               2.48192000     15.98640000      8.60094000     -0.01967080     -0.00153044      0.02739450       1
H               2.84394000     14.74320000     11.21050000      0.01161590     -0.00343998     -0.00027547       1
O               9.32523000      0.16316100     21.91730000     -0.01349730      0.03971190     -0.03137000       8
H               8.70472000     22.94950000     22.39040000     -0.01792140     -0.04134210      0.01582270       1
H              10.38620000      0.78832600     23.23740000      0.02018430     -0.00014854      0.00888087       1
O              12.43300000     21.42240000      4.42475000      0.12688000     -0.11093600      0.01004540       8
H              11.92000000     19.70880000      3.96956000      0.00836582      0.01380320      0.00510103       1
H              11.18210000     22.39590000      4.15832000     -0.13998100      0.10035100     -0.01733530       1
O               6.47393000      8.90161000     15.70030000     -0.05758380      0.06810480      0.05168860       8
H               5.42549000     10.56750000     16.61840000      0.05172710     -0.08126200     -0.03846810       1
H               5.10284000      7.67810000     15.58110000      0.00517549      0.01646990     -0.00093309       1
O              17.72740000     18.28420000     11.03640000      0.00878894     -0.04858390     -0.06281000       8
H              17.34130000     16.53370000     10.18350000      0.00901710      0.04808730      0.02546060       1
H              16.55970000     19.57220000     10.40910000     -0.02493600      0.00417195      0.00362238       1
O               7.54819000     23.38150000     10.13420000     -0.08203260     -0.03775980     -0.03916190       8
H               6.23394000      0.26192900     10.59120000      0.00802036     -0.01098890      0.00016307       1
H               5.50170000     21.85850000      8.67419000      0.05890320      0.04551590      0.05823850       1
O              14.09830000     18.43570000     17.43620000     -0.09834980      0.01401900      0.02625960       8
H              15.41250000     18.12800000     16.44850000      0.09803190     -0.01104330     -0.05701990       1
H              12.65730000     18.19390000     16.17810000      0.01865200     -0.00053473      0.02510670       1
O              22.02890000      1.00633000     21.06980000      0.02807600      0.06377370     -0.01076290       8
H              23.00270000      2.74457000     20.69500000     -0.03241880     -0.07251170      0.01791900       1
H              23.16720000     -0.38438100     20.86910000      0.00427643      0.00684420      0.00427730       1
O              19.40410000     20.25960000      1.23972000     -0.13533500      0.03116240     -0.04338670       8
H              21.02220000     19.90660000      1.18403000      0.11554100     -0.03374950     -0.00212333       1
H              18.84200000     20.44080000     23.77240000      0.00852781     -0.00585305      0.03633710       1
O              16.47870000      1.92384000     11.53950000      0.02110080     -0.00882467     -0.02931620       8
H              15.77890000      1.15058000     10.00290000      0.00193748      0.00188328      0.01957590       1
H              18.31610000      1.77489000     11.24960000     -0.01937390      0.00254310      0.00832907       1
O              19.70310000     20.90990000      6.49200000     -0.00059527     -0.02802580      0.14300800       8
H              19.04390000     20.22130000      5.06521000     -0.02364700     -0.01164350     -0.05887710       1
H              18.83910000     19.24270000      8.47929000      0.03209630      0.04735590     -0.04188210       1
O               5.69518000     12.15370000     11.24360000     -0.02884260     -0.03101890      0.02288760       8
H               5.64312000     12.12940000     13.15630000      0.00441211     -0.01368850     -0.05103170       1
H               4.79601000     10.55830000     10.60990000      0.02865640      0.04126040      0.02312670       1
O              22.97040000     16.81330000     19.25210000      0.09055280     -0.12808900      0.03278700       8
H              22.22660000     17.92220000     18.31280000     -0.07738660      0.10329400     -0.07865980       1
H              23.43050000     15.52940000     17.85730000     -0.01601390      0.02398010      0.03085510       1
O              20.52560000      7.76703000     13.45290000     -0.00595298      0.03415430      0.03562870       8
H              21.28450000      6.47768000     12.46090000      0.00213910     -0.01906800     -0.02415980       1
H              19.78850000      7.11091000     14.98990000      0.00402537     -0.00848471     -0.00777828       1
O              19.19760000     19.24820000     15.73720000      0.03141040      0.07727490     -0.05162030       8
H              19.03700000     18.29650000     14.12660000      0.00243385      0.01315690      0.01976330       1
H              19.81380000     21.28450000     14.82790000     -0.02760910     -0.08040840      0.04642430       1
O              23.36580000     17.19330000     -0.00380800     -0.15971900     -0.03666570     -0.05946680       8
H              23.17180000     16.84520000     22.47390000     -0.01065480      0.00749373      0.03652840       1
H               0.60037900     17.37010000      0.06991400      0.17292800      0.02805770      0.02735290       1
O               6.68818000     13.33960000     19.43760000      0.00459237      0.14716700     -0.10827400       8
H               5.90569000     15.02290000     19.96560000      0.02494950     -0.04770870     -0.01186290       1
H               6.36824000     12.31100000     20.64030000     -0.03799450     -0.10469100      0.12103300       1
O              12.16420000      7.75266000     -0.02962700      0.07211070     -0.02931540     -0.11104800       8
H              12.47580000      7.42319000      1.64098000      0.02127900     -0.00842859      0.05465620       1
H              14.23480000      6.82863000     23.22960000     -0.08503980      0.03240100      0.05563840       1
O               1.49816000      8.17604000     15.85200000      0.00748748     -0.00186422      0.02630140       8
H               1.61273000      7.60307000     17.64630000     -0.01813110      0.01438930     -0.03024180       1
H              -0.21734500      8.46084000     15.28190000     -0.00418539     -0.01165880      0.00590147       1
O               0.65985500     11.55010000      1.85909000      0.05933490     -0.01223430     -0.16169300       8
H               0.15413400     12.75940000      0.44023500      0.00855898     -0.02525250      0.04613290       1
H              -0.22592900     11.93730000      3.17531000     -0.07221640      0.04255720      0.12004000       1
O               1.28635000     22.93120000     17.46880000      0.01690510     -0.04457100      0.30385200       8
H               2.50259000     -0.03856500     18.28920000     -0.02452140     -0.02160570     -0.00857089       1
H               2.17850000     21.19360000     17.95640000     -0.00786938      0.02509760     -0.01908990       1
O               2.55692000      0.25439400      5.15340000      0.00546990      0.03570950      0.06361640       8
H               2.26370000      0.43965000      7.21125000     -0.01350320     -0.00734667     -0.07843920       1
H               2.38738000      1.97042000      4.33494000     -0.00425854     -0.02750010      0.02128470       1
O               4.82422000      2.76200000     19.04410000      0.01865350     -0.04449420      0.03815330       8
H               5.81392000      1.55711000     20.23920000     -0.01611840      0.03918740     -0.03627030       1
H               4.80332000      4.34780000     19.95200000     -0.00364253     -0.00406205     -0.00080932       1
O               6.57359000     21.09000000     15.35790000      0.03159350      0.03679440     -0.05584150       8
H               6.51592000     22.21430000     13.57380000      0.00280759     -0.04838160      0.06494410       1
H               8.41431000     21.06210000     15.87080000     -0.04038220      0.01467760     -0.01251760       1
O              17.98000000     13.50830000      8.02704000      0.00876689     -0.00310539      0.01188080       8
H              16.68080000     13.78250000      6.84887000     -0.01651780      0.00548002     -0.01751740       1
H              18.84870000     12.02410000      7.41979000      0.00599347      0.00549037      0.00695265       1
O              17.18700000     22.43810000     21.18960000     -0.03111240     -0.03501500     -0.01919940       8
H              18.42680000     23.72490000     21.10470000      0.01288270      0.01265730     -0.01579810       1
H              16.76430000     21.67730000     19.49960000      0.02041080      0.02522200      0.03107720       1
O              18.75540000      5.10069000     18.19450000      0.02027790      0.00879808      0.01782840       8
H              16.95800000      4.76711000     18.21150000      0.00513278      0.00373675      0.00494851       1
H              19.35960000      5.49075000     19.94320000     -0.03002850     -0.01420050     -0.02967240       1
O               3.31883000     16.68490000      5.13139000      0.01337960     -0.00215310     -0.01695760       8
H               4.81774000     15.86510000      4.45271000     -0.00694552      0.00112214      0.01376060       1
H               3.26006000     18.18500000      4.01953000     -0.00892536     -0.00860021      0.01055050       1
O               7.42696000     23.81420000      3.71161000     -0.02884030      0.07638980     -0.04958640       8
H               7.42058000      1.32817000      1.43930000     -0.00152836     -0.08602150      0.10059200       1
H               5.88542000      0.21281300      4.79322000      0.03661170     -0.02246040     -0.03867470       1
O               5.52099000      6.87946000      7.30313000      0.04060110     -0.03792950      0.00026417       8
H               6.78993000      5.49262000      7.89481000     -0.04337920      0.03204420     -0.02214200       1
H               6.36304000      7.26754000      5.71174000     -0.00837527      0.00799127      0.00990434       1
O              20.80070000      0.43895500     15.55220000      0.15061900     -0.13431700     -0.00582790       8
H              20.14630000      1.71549000     16.32270000     -0.06606080      0.11638500      0.06863610       1
H              22.61250000      0.12218600     16.86730000     -0.10072100      0.01581140     -0.06943840       1
O               4.50369000      3.26997000     13.36070000      0.00380897     -0.00428147     -0.00190544       8
H               4.53592000      3.37362000     15.17610000      0.00409649      0.00204091     -0.00515319       1
H               4.67293000      4.94560000     12.70700000     -0.00509173      0.00141964      0.00188984       1
O              13.58270000     10.39500000      9.97676000      0.03383880      0.05190730      0.01012070       8
H              12.50490000      9.77695000     11.29150000     -0.00609457     -0.01037540      0.00979547       1
H              14.86460000     11.63980000     10.82390000     -0.02801080     -0.04731920     -0.01731470       1
O               7.38388000     19.73030000     23.10080000      0.01455010     -0.05447470     -0.06210080       8
H               6.89144000     18.60600000     21.47430000      0.01111270      0.04977290      0.06063350       1
H               9.16586000     19.19200000     23.24070000     -0.01231200      0.00305076     -0.00375817       1
O              16.72440000     11.75080000     13.94990000     -0.01423180     -0.01613710      0.01505330       8
H              18.47460000     11.27230000     13.75920000     -0.00387662     -0.00516472     -0.00299687       1
H              15.87740000     10.22380000     14.64310000      0.01678150      0.02555390     -0.01141330       1
O               3.10087000     20.64680000      1.94663000     -0.00915049      0.00569895      0.01306420       8
H               4.91499000     20.85490000      1.88173000     -0.00695204      0.00934354      0.00220269       1
H               2.48065000     21.72610000      3.38416000      0.01378570     -0.00470480     -0.02257570       1
O              23.23390000     11.08330000      7.36115000      0.03194560     -0.04463830     -0.00608815       8
H              24.39060000      9.49178000      7.24806000     -0.03865980      0.05390680      0.01505680       1
H              -0.49734600     12.23060000      8.66388000      0.00512547     -0.00911475     -0.01256740       1
O               8.73784000     16.42010000      3.71257000      0.07860330     -0.01222580     -0.04786970       8
H               8.54948000     17.56250000      2.08251000      0.01560900     -0.04642640      0.05404320       1
H              10.78890000     15.42630000      3.79005000     -0.09395210      0.05911720     -0.00973168       1
O               7.36801000      4.85342000      0.90690100     -0.12422100     -0.02133280      0.00736723       8
H               8.98953000      4.81534000      0.68490500      0.14711400      0.02729370     -0.01542180       1
H               7.18569000      3.08490000     24.71090000     -0.02573370      0.02217030     -0.01214030       1
O               4.07401000     18.35370000     18.92300000     -0.07168720      0.05356710      0.11701700       8
H               4.32297000     17.33480000     17.64610000      0.02299540     -0.06129800     -0.10812100       1
H               2.42493000     17.66340000     19.64030000      0.02932840      0.01446200     -0.01054070       1
O              23.60590000     13.83040000     14.59750000     -0.02376810      0.02759560      0.05389330       8
H              23.25870000     14.01150000     12.88760000      0.00324948      0.00381047     -0.03531220       1
H               0.42997500     12.58960000     14.94610000      0.02316690     -0.03089290     -0.00687148       1
O              10.99470000     14.69990000      8.34146000      0.15475000      0.10181700      0.17110300       8
H              11.96650000     13.33750000      9.56914000     -0.03107940      0.04616350     -0.04783310       1
H              10.25170000     13.62360000      7.50050000     -0.12452700     -0.15188000     -0.12671000       1
