192
TotEnergy=-1103.27113000 cutoff=-1.00000000 nneightol=1.20000000 pbc="T T T" Lattice="23.46511000       0.00000000       0.00000000      -0.00000100      23.46511000       0.00000000      -0.00000100      -0.00000100      23.46511000" Properties=species:S:1:pos:R:3:force:R:3:Z:I:1
O              11.73720000     19.95060000     28.09080000     -0.05176530      0.02525310     -0.01835730       8
H              11.68590000     21.23030000     26.67990000      0.00545715     -0.02365150      0.02208770       1
H               9.87326000     19.95100000     28.53540000      0.04455480     -0.00115915     -0.00612713       1
O               4.44906000      3.54927000      5.02541000      0.13556300     -0.04736300     -0.05343020       8
H               3.52340000      4.72528000      5.69930000     -0.08234250      0.08533730      0.06091900       1
H               6.21699000      4.67256000      4.76812000     -0.05793700     -0.04400010     -0.00294120       1
O              -2.90425000     26.55750000      2.43805000      0.01879980     -0.01215720     -0.01682070       8
H              -1.25570000     26.12260000      1.64133000     -0.01252760     -0.00130700      0.00672734       1
H              -2.82457000     28.33230000      2.73553000     -0.00344769      0.01145380      0.00666578       1
O               7.73216000      7.01873000     26.93540000      0.03124980      0.03372370     -0.06935080       8
H               6.80912000      8.05507000     25.56080000      0.02049990     -0.03022310      0.03939770       1
H               9.51185000      6.71717000     26.00060000     -0.05158510     -0.00445837      0.02738910       1
O              19.58420000     15.83340000      8.47662000     -0.04497150      0.06405890      0.04528390       8
H              18.48700000     17.44260000      9.05238000      0.04343990     -0.04191180      0.00097682       1
H              18.81270000     15.94880000      6.87674000      0.01064250     -0.01604650     -0.04159530       1
O              16.78940000      2.77094000     22.38820000      0.03236090      0.03553450     -0.04790700       8
H              18.20680000      2.85526000     23.57590000     -0.00575960     -0.00310658      0.00505061       1
H              17.58720000      3.73263000     20.85180000     -0.03223260     -0.03299340      0.04369930       1
O              -4.17339000      1.22643000      7.13568000      0.06539450      0.00049389     -0.02158790       8
H              -2.51997000      1.26985000      8.24777000     -0.04800110     -0.00937053     -0.03638730       1
H              -3.48658000      1.22756000     28.70250000     -0.02475010      0.00521735      0.06242440       1
O              17.63930000     11.62610000     21.43060000      0.07373340     -0.00580826     -0.01363420       8
H              18.36930000     13.29950000     21.06310000     -0.02732520     -0.00316854      0.00068966       1
H              19.33970000     10.73160000     21.13600000     -0.04859090      0.00249352      0.00956087       1
O               0.36421300     -7.00055000     15.88380000      0.05231020     -0.04961490     -0.03747940       8
H              -0.05345500     -8.84700000     15.44590000     -0.00300661      0.03890910      0.01671840       1
H               2.18940000     -6.93774000     15.10950000     -0.04908890      0.00766001      0.02066570       1
O              18.33310000     15.20240000      3.14369000      0.07983530      0.03263140     -0.03584490       8
H              20.09330000     14.67980000      2.35866000     -0.06702990      0.00852469      0.03773170       1
H              17.16770000     13.98130000      3.64479000     -0.01950640     -0.03635350      0.00188683       1
O               1.40208000     29.80570000     32.86900000     -0.02331730      0.05121450     -0.03046220       8
H              -0.45066000     29.80310000     33.17300000      0.02994350     -0.00536488     -0.00027083       1
H               1.61206000     31.53670000     32.01750000      0.00201698     -0.04439660      0.02777320       1
O               1.82663000     25.20480000      1.03075000     -0.01488590      0.01471890     -0.00793668       8
H               2.41562000     23.71510000      0.14283500      0.00352992     -0.00634549      0.01595780       1
H               2.40148000     25.26920000      2.77522000      0.01233410     -0.00317725     -0.01042600       1
O              -8.21508000      4.81512000      6.68181000      0.03096560      0.02928960     -0.02416820       8
H              16.36490000      5.93297000      5.49043000     -0.03026340     -0.04193520      0.03498600       1
H              16.34250000      3.52750000      7.47292000      0.00181927      0.01068610     -0.01725070       1
O              22.53420000      8.26289000     -3.36766000     -0.00970886      0.02420420     -0.02229290       8
H              22.13800000      9.49062000     -4.79254000      0.00975376     -0.01908640      0.01880060       1
H              24.07230000      8.84974000     20.86730000     -0.00059961      0.00093583     -0.00364628       1
O              22.24040000     22.83280000     18.49440000      0.01141460     -0.06504600      0.02721850       8
H              22.50310000     21.26250000     19.71930000     -0.00648361      0.05432810     -0.02085090       1
H              22.09360000     21.81370000     16.97720000     -0.00477002      0.00958256     -0.01024780       1
O              10.71780000     17.66000000     -2.42524000      0.03658630      0.03265650      0.02659400       8
H              11.83730000     16.14480000     -1.88299000     -0.02381380      0.05612010     -0.00259716       1
H              11.28800000     19.57890000     -1.83374000     -0.00650955     -0.09229510     -0.01628040       1
O              21.48710000     -3.33682000     13.30600000     -0.07595980     -0.07874290      0.02590480       8
H              19.49400000     -3.93959000     13.07670000      0.07925140      0.02624630      0.00680946       1
H              22.09090000     18.40610000     14.20410000     -0.00184525      0.04862240     -0.02130510       1
O              14.94200000     -0.69976600     17.61910000      0.01239280      0.01988160     -0.05375540       8
H              15.20380000      0.13707300     15.86750000     -0.02309290     -0.02274820      0.03030180       1
H              16.65700000     -0.57612700     18.13790000      0.00610625     -0.00422090      0.02189660       1
O              10.23570000     23.91180000     19.22590000      0.13345600      0.02611800      0.12209500       8
H              35.41140000     23.10000000     18.81490000     -0.02683870      0.02322390      0.00708576       1
H               9.22871000     23.59630000     18.02030000     -0.10309700     -0.04137550     -0.12585800       1
O              10.26760000      3.81243000     12.96730000      0.11825900     -0.03020540      0.04125760       8
H              10.20810000      2.07365000     12.57480000      0.02365900     -0.02703550     -0.00209831       1
H               8.72723000      4.06227000     12.50040000     -0.14230000      0.05396610     -0.03709680       1
O               8.15941000    -10.91950000     19.94230000     -0.03528380      0.00578052     -0.04099310       8
H               7.37802000     -9.27372000     20.20680000      0.00747206      0.00690372      0.00676473       1
H               7.48145000    -11.22860000     18.14110000      0.02549410     -0.00867741      0.04054300       1
O              11.81900000     17.17370000     -7.79501000     -0.02076460      0.01317530     -0.05853520       8
H              12.52270000     16.99060000     -6.19324000      0.00069564      0.01234120      0.03493590       1
H              11.11020000     18.86730000     -8.15204000      0.01411670     -0.02537180      0.02270810       1
O              11.27990000      5.18862000      0.15883200     -0.00472943     -0.01014360      0.03124010       8
H              12.44760000      3.82105000      0.03184800      0.01127630     -0.00254465      0.00642175       1
H              11.12920000      5.74845000     -1.50722000     -0.00486530      0.01661480     -0.04094840       1
O              12.35870000     12.32640000     22.69940000      0.00194954     -0.02467780     -0.06159390       8
H              10.74780000     11.94630000     21.67330000      0.02574380      0.01336190      0.01934810       1
H              13.66850000     11.74410000     21.38960000     -0.02556880      0.01674760      0.04504310       1
O              23.31920000      0.06631400     10.22980000      0.08285660     -0.00417628     -0.03554170       8
H              22.94850000     -1.06394000     11.53190000     -0.02597670     -0.02677600      0.02921700       1
H              25.11200000     -0.70266500      9.77900000     -0.05099700      0.03945250      0.00008265       1
O               1.68343000     34.10010000      3.33614000     -0.02886480     -0.01413210     -0.08010690       8
H               2.53955000     10.67990000      4.82277000      0.04036150      0.00076235      0.05535990       1
H               2.72319000     33.30980000      1.95859000     -0.01342470      0.01846420      0.02745060       1
O               7.93508000     10.17740000     15.61710000     -0.00599404     -0.04043080     -0.03771800       8
H               8.71429000     11.10600000     14.23170000      0.00459240      0.01252820      0.00646760       1
H               7.35508000      8.70979000     14.52570000     -0.00618344      0.01896180      0.02411810       1
O              -4.57327000      8.11328000      3.99269000      0.04897160      0.07702400     -0.00198702       8
H              -3.33696000      9.64088000      4.40168000     -0.02921180     -0.06333580      0.00714773       1
H              -5.26623000      9.14596000      2.65492000     -0.02075020     -0.01679930     -0.00840230       1
O              17.41850000     12.02720000     12.68640000     -0.00073863     -0.06226430     -0.04844670       8
H              16.04850000     10.95780000     13.35380000      0.00623403      0.00607311      0.00989572       1
H              17.89800000     10.74120000     11.09830000     -0.00044880      0.04485870      0.04849100       1
O               4.46289000     18.12640000      4.91920000      0.03024880     -0.04788630     -0.04464520       8
H               5.48913000     16.61970000      4.36629000     -0.01080910      0.00741606      0.03796180       1
H               4.64355000     18.67130000      3.15367000     -0.02102780      0.03466420      0.00143861       1
O               5.04858000     -0.88769700      7.95097000     -0.00890574     -0.13352000      0.03184790       8
H               5.05485000      0.34414000      6.78537000     -0.00048256      0.06552750     -0.05851280       1
H               4.96560000     -2.65098000      6.97615000      0.00146576      0.06507260      0.02865420       1
O               6.65392000     20.72090000     16.74010000     -0.01768800      0.07747990     -0.01238180       8
H               5.89884000     22.62040000     16.68360000      0.01372580     -0.06162670     -0.00138598       1
H               6.58523000     20.19680000     14.97380000     -0.00750267     -0.00462833      0.01031480       1
O              17.18820000     16.84360000     -9.25645000      0.02347170     -0.03142920     -0.00972204       8
H              15.55690000     17.30280000     -9.61198000     -0.05536480      0.04076550     -0.00087861       1
H              16.82950000     15.09080000     -9.83626000      0.03352260      0.00250211      0.00485217       1
O              22.47640000     -4.98956000     -1.70335000     -0.02722360     -0.02284640     -0.03625920       8
H              22.89820000     -6.27008000     23.00950000      0.00419970      0.00707910      0.00098269       1
H              21.20050000     -5.86097000     -2.90222000      0.02412420      0.02218830      0.03034540       1
O              10.59560000      6.33444000     18.43260000     -0.05926770      0.01767720     -0.02529730       8
H              10.00650000      4.60462000     17.81170000      0.01442200      0.04905200      0.00825034       1
H               9.29483000      7.82882000     17.77980000      0.04959810     -0.06009460      0.01497120       1
O              16.58440000     20.36500000      8.65756000     -0.05406030     -0.04813980      0.00730361       8
H              15.14890000     19.53490000      7.65778000      0.04086250      0.03337520      0.01361990       1
H              17.82330000     21.19350000      7.67994000      0.01018290      0.01993900     -0.02658780       1
O              14.45510000     12.06040000      4.59376000     -0.06373680     -0.02060180     -0.04390610       8
H              13.46090000     11.69510000      2.86938000      0.04052420      0.01554500      0.05287590       1
H              13.04270000     11.65650000      5.78659000      0.01948180      0.00167554     -0.01460170       1
O               8.66789000     14.19260000      3.05081000     -0.09983560      0.12730700      0.10417400       8
H               9.38204000     15.90630000      2.85687000     -0.01109820     -0.01721310      0.00585580       1
H               9.66635000     13.43420000      2.07360000      0.11119900     -0.10129100     -0.11400800       1
O              19.95360000     20.73090000      3.06181000     -0.11190900     -0.10720500      0.07731160       8
H              21.12900000     20.79970000      1.94100000      0.10950600      0.02629480     -0.10337200       1
H              19.65470000     18.70160000      2.71455000     -0.00139782      0.07836060      0.02760570       1
O              12.66690000      7.92022000     10.91640000      0.05046150     -0.03940960     -0.00935669       8
H              12.72990000      6.15841000     11.69750000     -0.01558930      0.03862280     -0.01367260       1
H              14.26070000      7.78902000      9.86417000     -0.04181150      0.00562484      0.01957180       1
O              13.13470000     16.08270000      8.59410000     -0.00443883      0.04788020      0.08362130       8
H              12.59790000     15.32190000      7.18593000     -0.01372610     -0.03801040     -0.07399300       1
H              14.90440000     16.13100000      8.77470000      0.01364600     -0.01415670     -0.00445234       1
O              20.18910000     27.64180000     17.49570000     -0.01122430     -0.01707240     -0.00390965       8
H              20.88560000     26.05730000     18.04570000     -0.00013700     -0.01440840      0.00547415       1
H              21.47010000     28.78580000     17.98040000      0.01195980      0.02269020      0.00850362       1
O               4.15504000     11.29050000      8.53491000      0.04473890      0.05906650      0.01588000       8
H               5.96534000     11.98480000      8.88924000     -0.04500890     -0.03675140     -0.01659450       1
H               3.28389000     12.89870000      8.97344000     -0.00661048     -0.02299120     -0.00410737       1
O              15.25370000     24.10310000     12.68990000      0.05258190     -0.03190190     -0.08161350       8
H              17.14260000     23.81260000     11.94230000     -0.07277350      0.01663170      0.03172540       1
H              14.29110000     23.31320000     11.18470000      0.02530140      0.02196080      0.04812700       1
O               5.12798000     17.00010000     19.59140000     -0.05347640     -0.00177156      0.00986032       8
H               3.21582000     16.47170000     19.54030000      0.06317980      0.03361720     -0.00733310       1
H               5.56009000     18.78380000     18.94750000     -0.01569530     -0.04128360     -0.00673326       1
O               3.62540000     25.38210000     16.58850000     -0.00870431      0.00402892      0.05660120       8
H               3.75330000     26.21240000     18.43870000      0.00394900     -0.01675910     -0.05431410       1
H               2.08609000     24.40490000     16.89950000      0.00762581      0.00383637     -0.00996104       1
O               1.41600000     15.93430000      9.46203000     -0.09255410     -0.02420100      0.08903470       8
H               1.55278000     16.68950000      7.96019000      0.00609872      0.03964040     -0.07996410       1
H              -0.72437400     16.20840000      9.82936000      0.08308930     -0.01596710     -0.02302160       1
O              -8.03415000      8.64299000     16.19900000      0.02011480      0.04892060      0.08257730       8
H              13.72490000      8.10451000     16.48360000     -0.00700822     -0.00818128     -0.00077187       1
H              -7.60116000      9.55021000     18.04350000     -0.01390170     -0.03903910     -0.08046810       1
O              32.96700000     10.63290000      6.81207000     -0.02670570     -0.04165850     -0.01049380       8
H              31.83000000      9.56618000      5.57624000      0.03880700      0.02897070      0.03555180       1
H              33.34140000      9.40001000      8.15672000      0.00081464      0.01153330     -0.01128900       1
O               5.04712000     17.63000000     12.65710000     -0.00152374     -0.00238684     -0.02997010       8
H               6.17036000     16.42230000     11.83330000      0.00834882     -0.00129975      0.02201010       1
H               3.85553000     17.75400000     11.24010000     -0.00636354      0.00411228      0.01806720       1
O              19.32960000      8.18184000      9.52891000     -0.01154090      0.01258380     -0.00061202       8
H              18.01620000      7.72551000      8.34416000      0.00968959     -0.00308947      0.00235764       1
H              -4.03309000      6.81577000     10.76230000     -0.00180211     -0.00770485      0.00409266       1
O              23.48720000     15.56300000      2.41294000      0.05032130      0.04917190      0.04132990       8
H              24.97710000     16.20170000      3.62138000     -0.05638630     -0.01191740     -0.04151440       1
H              23.90240000     13.84960000      2.33417000      0.01189510     -0.04294280     -0.00093389       1
O              20.58950000      4.17204000     12.59490000     -0.01695250     -0.00320913      0.05368920       8
H              21.65930000      2.95115000     11.81170000      0.00908735     -0.00738898      0.00316703       1
H              20.42930000      3.82282000     14.66790000      0.00477641      0.01876190     -0.06283880       1
O               8.75892000     23.28820000     24.16070000      0.01970730      0.04393150     -0.06215280       8
H               9.25728000     24.85950000     24.95970000     -0.00441821     -0.00853376      0.02530730       1
H               9.18723000     24.02350000     22.33770000     -0.00858692     -0.04471110      0.03685430       1
O             -18.14470000      6.08073000     12.99490000     -0.04609700     -0.02629860     -0.04519530       8
H             -19.30870000      5.73362000     11.24470000      0.03542370      0.01842200      0.07783070       1
H             -18.95620000      5.08015000     14.37010000      0.00797488      0.01023560     -0.02842460       1
O               9.57598000     -1.24256000     10.46200000      0.16335400      0.03914050      0.01979410       8
H              10.68420000     -2.52658000      9.78062000     -0.00702270      0.00535882      0.00400714       1
H               8.06214000     -1.77948000     10.29230000     -0.15032700     -0.04616550     -0.02149990       1
O              18.08540000     -6.64058000     19.25010000     -0.00330363      0.02022130     -0.03603190       8
H              16.90950000     -5.52016000     20.04340000     -0.00315136      0.00544787      0.01612240       1
H              17.89810000     -6.01876000     17.43260000      0.00722336     -0.02816740      0.02806750       1
O              28.00840000      9.58031000     22.56660000     -0.23257300     -0.24436500      0.14280800       8
H              28.34330000      7.92708000     21.95940000      0.00695367     -0.00737231     -0.01503060       1
H              28.92930000     10.60800000     22.04200000      0.22707700      0.24440700     -0.13409900       1
O              27.80410000     20.85370000     23.61990000      0.00167034     -0.02401790     -0.01628150       8
H              27.60630000     -3.75812000     22.13760000      0.00821869      0.01252670      0.02504370       1
H              29.60070000     21.30860000     23.77300000     -0.00992663      0.00480102     -0.00595177       1
O              27.98060000     27.67920000     20.76940000      0.12758600      0.01510180     -0.09247110       8
H               6.11157000     26.92100000     21.43270000     -0.01669700      0.01308200     -0.02159720       1
H              27.11290000     27.48040000     22.12230000     -0.10691700     -0.02327620      0.13172800       1
O              -8.26300000     21.20760000     -0.52847700      0.01146860     -0.04759070      0.06398720       8
H              -7.71284000     20.20990000      1.24394000     -0.01646300      0.06112920     -0.07970980       1
H              -7.76876000     23.00590000     -0.60290600      0.00532035     -0.01705760      0.01128110       1
O              10.71410000      2.36142000      4.93697000      0.05481970      0.07448260      0.00037131       8
H              10.98320000      1.02926000      6.02409000     -0.00234895     -0.03908160      0.02792300       1
H              12.29550000      3.50478000      5.54979000     -0.04877540     -0.03092760     -0.02525230       1
O              21.46370000     11.38240000     15.77730000     -0.01778850     -0.03168170     -0.07538950       8
H              19.63280000     11.62040000     14.69190000      0.04868690     -0.00482887      0.02779750       1
H              22.38970000     10.22260000     14.46870000     -0.02750550      0.03630870      0.04348740       1
O               9.03463000     -9.35419000     12.46000000      0.07775010      0.04604210      0.00514147       8
H               9.79151000     15.00850000     14.15480000     -0.02148600     -0.02399420     -0.05825610       1
H              10.52010000     -8.91613000     11.15300000     -0.05071470     -0.01765860      0.04653630       1
